version 3
run MediumBandwidth-0-20250504-18:48:19-15284
attr configname MediumBandwidth
attr datetime 20250504-18:48:19
attr datetimef 20250504-184819
attr experiment MediumBandwidth
attr inifile omnetpp.ini
attr iterationvars ""
attr iterationvarsd ""
attr iterationvarsf ""
attr measurement ""
attr network BangaloreScenario
attr processid 15284
attr repetition 0
attr replication #0
attr resultdir results
attr runnumber 0
attr seedset 0
config image-path ../../../../../../../OneDrive/Desktop/veins/images
config description "Simulation with Medium Bandwidth (e.g., 10 Mbps)"
config *.**.nic.phy80211p.bitrate 10Mbps
config network BangaloreScenario
config sim-time-limit 300s
config *.manager.updateInterval 0.1s
config *.manager.host "\"localhost\""
config *.manager.port 9999
config *.manager.moduleType "\"org.car2x.veins.nodes.Car\""
config *.manager.moduleName "\"node\""
config *.manager.autoShutdown true
config *.manager.launchConfig "xmldoc(\"bangalore.launchd.xml\")"
config *.**.scalar-recording true
config *.**.vector-recording true
config *.**.BangaloreScenario.worldUtility.playgroundSizeX 3000m
config *.**.BangaloreScenario.worldUtility.playgroundSizeY 3000m
config *.**.BangaloreScenario.worldUtility.playgroundSizeZ 50m
config *.**.BangaloreScenario.playgroundSizeX 3000m
config *.**.BangaloreScenario.playgroundSizeY 3000m
config *.**.BangaloreScenario.playgroundSizeZ 50m
config *.node[*].veinsmobility.setHostState false
config *.node[*].veinsmobility.setHostSpeed false
config *.node[*].mobilityType "\"org.car2x.veins.modules.mobility.traci.TraCIMobility\""
config *.node[*].mobility.updateInterval 0.1s
config *.node[*].mobility.setHostState false
config *.node[*].applType "\"bangalore_v2v.MyBangaloreApp.MyBangaloreApp\""
config *.node[*].nicType "\"org.car2x.veins.modules.nic.Nic80211p\""
config *.node[*].nic.phy80211p.usePropagationDelay true
config *.node[*].nic.phy80211p.thermalNoise -110dBm
config *.node[*].nic.phy80211p.sensitivity -95dBm
config *.node[*].nic.phy80211p.maxTXPower 20mW
config *.node[*].veinsmobility.x 0
config *.node[*].veinsmobility.y 0
config *.node[*].veinsmobility.z 0
config *.node[*].appl.broadcastInterval 1s
config *.**.nic.mac1609_4.useServiceChannel false
config *.**.nic.mac1609_4.txPower 20mW
config *.**.nic.phy80211p.minPowerLevel -110dBm
config *.**.nic.phy80211p.useNoiseFloor true
config *.**.nic.phy80211p.noiseFloor -98dBm
config BangaloreScenario.numCars 0
config *.**.nic.phy80211p.decider "xmldoc(\"config.xml\")"
config *.**.nic.phy80211p.analogueModels "xmldoc(\"config.xml\")"
config *.connectionManager.sendDirect false
config *.connectionManager.maxInterfDist 10000m

vector 0 BangaloreScenario.node[0].nic.phy80211p RadioState ETV
vector 1 BangaloreScenario.node[0].nic.phy80211p RadioChannel ETV
vector 2 BangaloreScenario.manager posx ETV
vector 3 BangaloreScenario.manager posy ETV
vector 4 BangaloreScenario.manager speed ETV
vector 5 BangaloreScenario.manager acceleration ETV
vector 6 BangaloreScenario.manager co2emission ETV
vector 7 BangaloreScenario.node[1].nic.phy80211p RadioState ETV
vector 8 BangaloreScenario.node[1].nic.phy80211p RadioChannel ETV
vector 9 BangaloreScenario.manager posx ETV
vector 10 BangaloreScenario.manager posy ETV
vector 11 BangaloreScenario.manager speed ETV
vector 12 BangaloreScenario.manager acceleration ETV
vector 13 BangaloreScenario.manager co2emission ETV
vector 14 BangaloreScenario.node[2].nic.phy80211p RadioState ETV
vector 15 BangaloreScenario.node[2].nic.phy80211p RadioChannel ETV
vector 16 BangaloreScenario.manager posx ETV
vector 17 BangaloreScenario.manager posy ETV
vector 18 BangaloreScenario.manager speed ETV
vector 19 BangaloreScenario.manager acceleration ETV
vector 20 BangaloreScenario.manager co2emission ETV
vector 21 BangaloreScenario.node[3].nic.phy80211p RadioState ETV
vector 22 BangaloreScenario.node[3].nic.phy80211p RadioChannel ETV
vector 23 BangaloreScenario.manager posx ETV
vector 24 BangaloreScenario.manager posy ETV
vector 25 BangaloreScenario.manager speed ETV
vector 26 BangaloreScenario.manager acceleration ETV
vector 27 BangaloreScenario.manager co2emission ETV
vector 28 BangaloreScenario.node[4].nic.phy80211p RadioState ETV
vector 29 BangaloreScenario.node[4].nic.phy80211p RadioChannel ETV
vector 30 BangaloreScenario.manager posx ETV
vector 31 BangaloreScenario.manager posy ETV
vector 32 BangaloreScenario.manager speed ETV
vector 33 BangaloreScenario.manager acceleration ETV
vector 34 BangaloreScenario.manager co2emission ETV
vector 35 BangaloreScenario.node[5].nic.phy80211p RadioState ETV
vector 36 BangaloreScenario.node[5].nic.phy80211p RadioChannel ETV
vector 37 BangaloreScenario.manager posx ETV
vector 38 BangaloreScenario.manager posy ETV
vector 39 BangaloreScenario.manager speed ETV
vector 40 BangaloreScenario.manager acceleration ETV
vector 41 BangaloreScenario.manager co2emission ETV
vector 42 BangaloreScenario.node[6].nic.phy80211p RadioState ETV
vector 43 BangaloreScenario.node[6].nic.phy80211p RadioChannel ETV
vector 44 BangaloreScenario.manager posx ETV
vector 45 BangaloreScenario.manager posy ETV
vector 46 BangaloreScenario.manager speed ETV
vector 47 BangaloreScenario.manager acceleration ETV
vector 48 BangaloreScenario.manager co2emission ETV
6	4	0.3	1.4377461184884
6	5	0.4	1.5713018311443
6	6	0.5	1.6833521092362
6	7	0.6	1.8750484231547
6	8	0.7	1.9732100655802
6	18	0.8	2.2244785304485
6	19	0.9	1.9460095433919
6	29	1	2.2730283353162
6	30	1.1	2.0405059892214
6	31	1.2	2.4045482697933
6	32	1.3	2.4861865308214
6	33	1.4	3.009258305697
6	34	1.5	2.4797292234537
6	35	1.6	3.159601830708
6	36	1.7	3.0716627500608
6	46	1.8	3.5019387345174
6	47	1.9	3.7376625251955
6	57	2	3.1109005055077
6	58	2.1	3.786388420013
6	59	2.2	2.968647477167
6	60	2.3	3.8646360496075
6	61	2.4	3.4506441859261
6	62	2.5	3.0785113908387
6	63	2.6	3.0236835156519
6	64	2.7	3.7371347858139
6	74	2.8	4.0772764086243
6	75	2.9	3.5412883921899
6	85	3	3.9816392011819
6	86	3.1	3.673919382989
6	87	3.2	4.8298196875552
6	88	3.3	5.0523880800782
6	89	3.4	3.5979272021817
6	90	3.5	4.5417113613139
6	91	3.6	4.4016744035838
6	92	3.7	4.5771382028875
6	102	3.8	5.1232375327014
6	103	3.9	6.3121489794699
6	113	4	5.7623846985954
6	114	4.1	4.986258536861
6	115	4.2	5.416333965192
6	116	4.3	5.3965237129347
6	117	4.4	6.7298389182546
6	118	4.5	4.5808347744665
6	119	4.6	6.6498775235175
6	120	4.7	6.9223345607948
6	130	4.8	6.1736293086549
6	131	4.9	7.5880928428865
6	141	5	7.1754979122774
6	142	5.1	7.2737002662501
6	143	5.2	6.9754982293089
6	144	5.3	8.366448129085
6	145	5.4	5.7547146457985
6	146	5.5	5.3053598137749
6	147	5.6	8.5423424838767
6	148	5.7	5.9661403261428
6	164	5.8	5.6855164977887
6	180	5.9	6.4518334915608
6	211	6	8.4555631499581
6	212	6.1	8.843181643411
6	213	6.2	6.8620847562016
6	214	6.3	6.621271267416
6	215	6.4	9.4343107911107
6	216	6.5	8.3922747394123
6	217	6.6	7.6893265082914
6	218	6.7	6.1982045723665
6	234	6.8	8.6888667928856
6	250	6.9	9.5853915124391
6	281	7	7.0556210704824
6	282	7.1	8.3554052538305
6	283	7.2	9.8658105840556
6	284	7.3	6.7762048170142
6	285	7.4	9.1376523954808
6	286	7.5	10.314764178006
6	287	7.6	8.916567055146
6	288	7.7	7.5323466841229
6	304	7.8	10.597888428354
6	320	7.9	10.087050689679
6	351	8	11.602235398909
6	352	8.1	8.2300131389163
6	353	8.2	8.7140798513584
6	354	8.3	9.6182572102752
6	355	8.4	11.084449214434
6	356	8.5	10.719669713529
6	357	8.6	8.5895402034476
6	358	8.7	12.414602011795
6	374	8.8	10.843127177804
6	390	8.9	13.381996567927
6	421	9	13.155425144265
6	422	9.1	12.841456171738
6	423	9.2	8.9057811896635
6	424	9.3	9.3316591089851
6	425	9.4	9.9061194987294
6	426	9.5	9.7110982160636
6	427	9.6	13.802736643836
6	428	9.7	8.7781686905191
6	444	9.8	9.5883100322276
6	460	9.9	13.293836339544
6	491	10	14.703441303858
6	492	10.1	11.046569702151
6	493	10.2	14.277828624915
6	515	10.3	11.746358446294
6	516	10.4	14.660414586313
6	517	10.5	15.60473723058
6	518	10.6	10.0327839457
6	519	10.7	11.462109974822
6	562	10.8	11.911341660126
6	584	10.9	13.961346144542
6	627	11	14.968000381997
6	628	11.1	15.430405888399
6	629	11.2	15.328784207156
6	651	11.3	13.975265004862
6	652	11.4	10.407851480126
6	653	11.5	17.350812543162
6	654	11.6	12.818308787542
6	655	11.7	11.162259904601
6	698	11.8	15.046210465652
6	720	11.9	14.130399997062
6	763	12	17.868216541173
6	764	12.1	12.755582967779
6	765	12.2	15.299011493531
6	787	12.3	13.310874027014
6	788	12.4	17.39393893023
6	789	12.5	12.668066298658
6	790	12.6	11.746062964869
6	791	12.7	1.0531734798304
6	834	12.8	3.8107086409832
6	856	12.9	3.9201657746092
6	899	13	2.8974997556029
6	900	13.1	5.7340722669763
6	901	13.2	3.6542815080776
6	923	13.3	1.5844808839634
6	924	13.4	8.0063006985679
6	925	13.5	4.5968479688657
6	926	13.6	1.9833392338324
6	927	13.7	0.973
6	970	13.8	6.3911163719501
6	992	13.9	3.3583945413392
6	1035	14	2.7488474427896
6	1036	14.1	0.973
6	1037	14.2	0.973
6	1059	14.3	0.973
6	1060	14.4	0.973
6	1061	14.5	0.973
6	1062	14.6	0.973
6	1063	14.7	0.973
6	1106	14.8	0.973
6	1128	14.9	0.973
6	1171	15	0.973
6	1172	15.1	0.973
6	1173	15.2	0.973
6	1201	15.3	0.973
6	1202	15.4	0.973
6	1203	15.5	0.973
6	1258	15.6	0.973
6	1259	15.7	0.973
6	1314	15.8	0.973
6	1342	15.9	0.973
6	1397	16	0.973
6	1398	16.1	0.973
6	1399	16.2	0.973
6	1427	16.3	0.973
6	1428	16.4	0.973
6	1429	16.5	0.973
6	1484	16.6	0.973
6	1485	16.7	0.973
6	1540	16.8	0.973
6	1568	16.9	0.973
6	1623	17	0.973
6	1624	17.1	0.973
6	1625	17.2	0.973
6	1653	17.3	0.973
6	1654	17.4	0.973
6	1655	17.5	0.973
6	1710	17.6	0.973
6	1711	17.7	0.973
6	1766	17.8	0.973
6	1794	17.9	0.973
6	1849	18	0.973
6	1850	18.1	2.7280955998888
6	1851	18.2	0.973
6	1879	18.3	1.4623246930071
6	1880	18.4	1.4659443723185
6	1881	18.5	2.5187984016841
6	1936	18.6	2.0512526130775
6	1937	18.7	0.973
6	1992	18.8	2.001587403388
6	2020	18.9	1.4888832862215
6	2075	19	1.6664636697276
6	2076	19.1	1.753607793835
6	2077	19.2	1.3706527632109
6	2105	19.3	4.1196200059658
6	2106	19.4	4.3338216512253
6	2107	19.5	5.6812472709781
6	2162	19.6	5.6574025690465
6	2163	19.7	6.5056457934288
6	2218	19.8	4.2541602353754
6	2246	19.9	4.867375410832
6	2301	20	5.7000263962787
6	2302	20.1	5.9138127499343
6	2336	20.2	6.3749308468679
6	2370	20.3	5.8786947457887
6	2371	20.4	6.623517698976
6	2372	20.5	5.5223552269144
6	2439	20.6	5.1988019923552
6	2440	20.7	5.2816200927344
6	2507	20.8	5.402718604361
6	2541	20.9	5.6782651127774
6	2641	21	6.0764813329526
6	2642	21.1	5.9517234353037
6	2676	21.2	5.6577385192609
6	2710	21.3	7.8265120289838
6	2711	21.4	8.3730222523168
6	2712	21.5	6.3752010712305
6	2779	21.6	8.4876145410635
6	2780	21.7	9.0828071101121
6	2847	21.8	8.1139278801537
6	2881	21.9	8.0195665397936
6	2981	22	7.7757099301602
6	2982	22.1	7.4411325563608
6	3016	22.2	9.4373598838656
6	3050	22.3	9.1524771601076
6	3051	22.4	10.288642112632
6	3052	22.5	9.3343288259422
6	3119	22.6	10.439621923514
6	3120	22.7	7.8457805989565
6	3187	22.8	6.5304472729666
6	3221	22.9	7.2875060460226
6	3321	23	9.7949545363892
6	3322	23.1	7.6098216367268
6	3356	23.2	8.4405227094791
6	3390	23.3	11.663727302589
6	3391	23.4	10.597802489998
6	3392	23.5	2.0570649725327
6	3459	23.6	4.3831885412359
6	3460	23.7	0.973
6	3527	23.8	2.3569134088764
6	3561	23.9	1.3040925113461
6	3661	24	4.9083441358517
6	3662	24.1	1.7653739939523
6	3696	24.2	1.048979982779
6	3730	24.3	2.4765426633919
6	3731	24.4	3.5096698746274
6	3732	24.5	0.973
6	3799	24.6	3.9440230636191
6	3800	24.7	1.7448735610127
6	3867	24.8	1.1734025421906
6	3901	24.9	1.5708236031016
6	4001	25	4.9377395406372
6	4002	25.1	1.239899962906
6	4042	25.2	4.2484393297014
6	4082	25.3	1.6552068301519
6	4083	25.4	0.973
6	4084	25.5	2.9200706220083
6	4163	25.6	1.2338156788494
6	4203	25.7	3.9452756037878
6	4282	25.8	2.8439421767075
6	4322	25.9	0.973
6	4440	26	0.973
6	4480	26.1	0.973
6	4520	26.2	0.973
6	4560	26.3	0.973
6	4561	26.4	0.973
6	4562	26.5	0.973
6	4641	26.6	0.973
6	4681	26.7	0.973
6	4760	26.8	0.973
6	4800	26.9	0.973
6	4918	27	0.973
6	4958	27.1	0.973
6	4998	27.2	0.973
6	5038	27.3	0.973
6	5039	27.4	0.973
6	5040	27.5	0.973
6	5119	27.6	0.973
6	5159	27.7	0.973
6	5238	27.8	0.973
6	5278	27.9	0.973
6	5396	28	0.973
6	5436	28.1	1.8224414745293
6	5476	28.2	1.7462234617549
6	5516	28.3	0.973
6	5517	28.4	2.630877086207
6	5518	28.5	2.3095069712644
6	5597	28.6	0.973
6	5637	28.7	0.973
6	5716	28.8	1.7393241323756
6	5756	28.9	0.973
6	5874	29	3.1591081826741
6	5914	29.1	5.7636458900374
6	5954	29.2	6.1935562430231
6	5994	29.3	6.4881531741832
6	5995	29.4	4.9606389777787
6	5996	29.5	5.5844811212678
6	6075	29.6	6.4369105858839
6	6115	29.7	5.0876087474733
6	6194	29.8	4.5925745600053
6	6234	29.9	6.1176021573848
6	6352	30	7.1787895153014
6	6392	30.1	6.1741815827721
6	6432	30.2	7.0952728065781
6	6472	30.3	7.9270211846416
6	6473	30.4	5.2129593199549
6	6474	30.5	6.6240482684481
6	6565	30.6	5.5920687592747
6	6611	30.7	8.1761630292869
6	6702	30.8	5.5506219046117
6	6748	30.9	6.2329780832798
6	6884	31	7.0180410477325
6	6930	31.1	6.1470531201522
5	4	0.3	2.5227782611462
5	5	0.4	2.3913321875384
5	6	0.5	2.2647456793603
5	7	0.6	2.4276095240349
5	8	0.7	2.2916625780298
5	18	0.8	2.5344215164987
5	19	0.9	1.6664884685297
5	29	1	2.1295186728844
5	30	1.1	1.5344444137342
5	31	1.2	2.012904180415
5	32	1.3	1.9748638385907
5	33	1.4	2.536921401252
5	34	1.5	1.6644197624875
5	35	1.6	2.3876782166306
5	36	1.7	2.1250225800788
5	46	1.8	2.4492640680401
5	47	1.9	2.5255911291111
5	57	2	1.7843908121809
5	58	2.1	2.3157095496776
5	59	2.2	1.4869633356575
5	60	2.3	2.1880426084623
5	61	2.4	1.7548668551957
5	62	2.5	1.3966282241978
5	63	2.6	1.3120618151035
5	64	2.7	1.8089185756631
5	74	2.8	1.9885440276936
5	75	2.9	1.5419875764288
5	85	3	1.7962171741528
5	86	3.1	1.5348525960464
5	87	3.2	2.2325326326303
5	88	3.3	2.2870639229659
5	89	3.4	1.3311956858728
5	90	3.5	1.8596540211234
5	91	3.6	1.7250115999952
5	92	3.7	1.7771527426783
5	102	3.8	2.0273098416161
5	103	3.9	2.5933179031126
5	113	4	2.2234064544784
5	114	4.1	1.7693011381198
5	115	4.2	1.9373904149048
5	116	4.3	1.8783372915117
5	117	4.4	2.4538008356234
5	118	4.5	1.4006419032114
5	119	4.6	2.304958770494
5	120	4.7	2.3604877096135
5	130	4.8	1.9778820008971
5	131	4.9	2.520886587305
5	141	5	2.2844143953407
5	142	5.1	2.2665570510551
5	143	5.2	2.0956227248534
5	144	5.3	2.5779598564608
5	145	5.4	1.5354645496001
5	146	5.5	1.3423833534354
5	147	5.6	2.5030969839776
5	148	5.7	1.5239654132863
5	164	5.8	1.3999055969762
5	180	5.9	1.647696577711
5	211	6	2.3076350883115
5	212	6.1	2.3875655513257
5	213	6.2	1.6817170715891
5	214	6.3	1.5755061051575
5	215	6.4	2.4562649028376
5	216	6.5	2.0757247052388
5	217	6.6	1.8186946440488
5	218	6.7	1.3287125359057
5	234	6.8	2.0711696933256
5	250	6.9	2.301566456561
5	281	7	1.5121217192616
5	282	7.1	1.8713770024944
5	283	7.2	2.2749604509445
5	284	7.3	1.3570906199748
5	285	7.4	2.0049406133592
5	286	7.5	2.2969292026013
5	287	7.6	1.8753374915803
5	288	7.7	1.4730459484737
5	304	7.8	2.2724647385534
5	320	7.9	2.0992807862349
5	351	8	2.4566862861393
5	352	8.1	1.5519108337816
5	353	8.2	1.6553716436494
5	354	8.3	1.8606211043894
5	355	8.4	2.196903877589
5	356	8.5	2.0729262706358
5	357	8.6	1.5265198461712
5	358	8.7	2.4231671048328
5	374	8.8	2.0128335082904
5	390	8.9	2.5738025467843
5	421	9	2.4776193857426
5	422	9.1	2.3657124478836
5	423	9.2	1.4466357906349
5	424	9.3	1.5258882674621
5	425	9.4	1.6357196343364
5	426	9.5	1.5736574145034
5	427	9.6	2.4414880499011
5	428	9.7	1.3276523664827
5	444	9.8	1.4873702042503
5	460	9.9	2.2531004415592
5	491	10	2.5129802494543
5	492	10.1	1.7223074501613
5	493	10.2	2.360862417263
5	515	10.3	1.8162483868189
5	516	10.4	2.3761831316864
5	517	10.5	2.5273815787165
5	518	10.6	1.4010386305163
5	519	10.7	1.665538517409
5	562	10.8	1.7337677868549
5	584	10.9	2.1056890492793
5	627	11	2.2684262131574
5	628	11.1	2.3239350897493
5	629	11.2	2.2732888697647
5	651	11.3	1.9950189980446
5	652	11.4	1.3207524630008
5	653	11.5	2.5631387459813
5	654	11.6	1.7175660141045
5	655	11.7	1.4042712009279
5	698	11.8	2.0769173276611
5	720	11.9	1.8915326801362
5	763	12	2.516576019628
5	764	12.1	1.6053537485655
5	765	12.2	2.0229636409553
5	787	12.3	1.6628260320751
5	788	12.4	2.3307808822487
5	789	12.5	1.5147111537401
5	790	12.6	1.3470683438015
5	791	12.7	-0.44390028223862
5	834	12.8	0.018935480481019
5	856	12.9	0.037167247291663
5	899	13	-0.13405159220564
5	900	13.1	0.34055868706201
5	901	13.2	-0.0081748536089776
5	923	13.3	-0.35448810032101
5	924	13.4	0.71925090015863
5	925	13.5	0.1477090294706
5	926	13.6	-0.28894324628638
5	927	13.7	-0.77951108592096
5	970	13.8	0.45135719773825
5	992	13.9	-0.057240448310054
5	1035	14	-0.15904817315747
5	1036	14.1	-4.5
5	1037	14.2	-4.2245762070283
5	1059	14.3	-4.5
5	1060	14.4	-4.5
5	1061	14.5	-4.0518684870098
5	1062	14.6	-4.5
5	1063	14.7	-4.5
5	1106	14.8	-4.4882951494539
5	1128	14.9	-4.5
5	1171	15	-4.5
5	1172	15.1	-4.4426582447486
5	1173	15.2	-4.5
5	1201	15.3	-4.5
5	1202	15.4	-4.5
5	1203	15.5	-4.5
5	1258	15.6	-4.5
5	1259	15.7	-4.5
5	1314	15.8	-4.5
5	1342	15.9	-4.5
5	1397	16	-4.2701490547741
5	1398	16.1	-4.5
5	1399	16.2	-4.5
5	1427	16.3	-4.5
5	1428	16.4	-4.5
5	1429	16.5	-4.5
5	1484	16.6	-4.5
5	1485	16.7	-4.5
5	1540	16.8	-4.5
5	1568	16.9	-4.5
5	1623	17	-4.5
5	1624	17.1	-4.5
5	1625	17.2	-4.5
5	1653	17.3	-4.5
5	1654	17.4	-4.5
5	1655	17.5	-4.5
5	1710	17.6	-4.5
5	1711	17.7	-4.5
5	1766	17.8	-4.5
5	1794	17.9	-4.5
5	1849	18	-0.67439258818061
5	1850	18.1	0.70358912125229
5	1851	18.2	-1.0299019381404
5	1879	18.3	-0.015698678302583
5	1880	18.4	-0.013555045519018
5	1881	18.5	0.58956595039926
5	1936	18.6	0.31829167620745
5	1937	18.7	-0.91858300399036
5	1992	18.8	0.29464521592018
5	2020	18.9	-0.0012809858657459
5	2075	19	0.10071463112254
5	2076	19.1	0.15008963756263
5	2077	19.2	-0.07000160971657
5	2105	19.3	1.4771120201563
5	2106	19.4	1.5593118736753
5	2107	19.5	2.229622244928
5	2162	19.6	2.1495511898538
5	2163	19.7	2.5047667042818
5	2218	19.8	1.3388890681788
5	2246	19.9	1.6077916391194
5	2301	20	1.9626325945137
5	2302	20.1	2.0114652232034
5	2336	20.2	2.1667176323012
5	2370	20.3	1.8950140606379
5	2371	20.4	2.1697520451853
5	2372	20.5	1.6553734902991
5	2439	20.6	1.4890077127609
5	2440	20.7	1.4964233590756
5	2507	20.8	1.5188459897414
5	2541	20.9	1.6013400302036
5	2641	21	1.7274763863766
5	2642	21.1	1.6469131596619
5	2676	21.2	1.5060846358305
5	2710	21.3	2.2854176430963
5	2711	21.4	2.4302219065372
5	2712	21.5	1.6635986943962
5	2779	21.6	2.3746481880546
5	2780	21.7	2.5241095046513
5	2847	21.8	2.1413464629557
5	2881	21.9	2.0674303963082
5	2981	22	1.9485731412191
5	2982	22.1	1.8061260433169
5	3016	22.2	2.4053003768669
5	3050	22.3	2.267310655443
5	3051	22.4	2.5673678582767
5	3052	22.5	2.2286264948547
5	3119	22.6	2.5107559222262
5	3120	22.7	1.7101971354568
5	3187	22.8	1.306212358363
5	3221	22.9	1.5068043461302
5	3321	23	2.1915223166579
5	3322	23.1	1.548100555921
5	3356	23.2	1.7558296897449
5	3390	23.3	2.5999174537603
5	3391	23.4	2.267299042223
5	3392	23.5	-0.035479434223227
5	3459	23.6	0.58781431342942
5	3460	23.7	-0.4361758994637
5	3527	23.8	0.044728328241028
5	3561	23.9	-0.23848974648862
5	3661	24	0.72814325874205
5	3662	24.1	-0.11547482092865
5	3696	24.2	-0.30763909756205
5	3730	24.3	0.076440585684026
5	3731	24.4	0.35256813219748
5	3732	24.5	-0.44517058744095
5	3799	24.6	0.46904157320968
5	3800	24.7	-0.12103868168778
5	3867	24.8	-0.27421444407665
5	3901	24.9	-0.16692244964652
5	4001	25	0.73445446628611
5	4002	25.1	-0.25675560352392
5	4042	25.2	0.54769446519204
5	4082	25.3	-0.14606236943511
5	4083	25.4	-0.86272423253394
5	4084	25.5	0.19568019139115
5	4163	25.6	-0.25765838851221
5	4203	25.7	0.47021731033457
5	4282	25.8	0.17357502798548
5	4322	25.9	-0.40689521110616
5	4440	26	-1.6447176718811
5	4480	26.1	-3.6026541396277
5	4520	26.2	-4.4689518823521
5	4560	26.3	-4.5
5	4561	26.4	-4.5
5	4562	26.5	-4.5
5	4641	26.6	-4.5
5	4681	26.7	-4.5
5	4760	26.8	-4.5
5	4800	26.9	-4.5
5	4918	27	-4.4318598682527
5	4958	27.1	-4.5
5	4998	27.2	-4.5
5	5038	27.3	-4.5
5	5039	27.4	-4.5
5	5040	27.5	-4.5
5	5119	27.6	-4.5
5	5159	27.7	-4.5
5	5238	27.8	-4.5
5	5278	27.9	-0.65895577697087
5	5396	28	-0.53033512851689
5	5436	28.1	0.19334690487012
5	5476	28.2	0.14830420608632
5	5516	28.3	-0.27474563114811
5	5517	28.4	0.65538886762224
5	5518	28.5	0.46570608892944
5	5597	28.6	-0.18324560942128
5	5637	28.7	-0.2089500667993
5	5716	28.8	0.1409852320794
5	5756	28.9	-0.98321338626556
5	5874	29	0.95629259028938
5	5914	29.1	2.3656493975548
5	5954	29.2	2.5112010973738
5	5994	29.3	2.5746821876615
5	5995	29.4	1.7358635865385
5	5996	29.5	1.9978159122867
5	6075	29.6	2.3476496917428
5	6115	29.7	1.6575858970871
5	6194	29.8	1.3958321520127
5	6234	29.9	2.053735314752
5	6352	30	2.4632722997339
5	6392	30.1	1.9689447691198
5	6432	30.2	2.3065734611824
5	6472	30.3	2.5833849457791
5	6473	30.4	1.4347570260055
5	6474	30.5	1.9664169136435
5	6565	30.6	1.525964243128
5	6611	30.7	2.4793437642744
5	6702	30.8	1.4433793524047
5	6748	30.9	1.6721094863024
5	6884	31	1.9267319109989
5	6930	31.1	1.5789946682518
4	3	0.2	0.24714285032102
4	4	0.3	0.49942067643564
4	5	0.4	0.73855389518948
4	6	0.5	0.96502846312551
4	7	0.6	1.207789415529
4	8	0.7	1.436955673332
4	18	0.8	1.6903978249819
4	19	0.9	1.8570466718348
4	29	1	2.0699985391233
4	30	1.1	2.2234429804967
4	31	1.2	2.4247333985382
4	32	1.3	2.6222197823973
4	33	1.4	2.8759119225225
4	34	1.5	3.0423538987712
4	35	1.6	3.2811217204343
4	36	1.7	3.4936239784422
4	46	1.8	3.7385503852462
4	47	1.9	3.9911094981573
4	57	2	4.1695485793754
4	58	2.1	4.4011195343431
4	59	2.2	4.5498158679089
4	60	2.3	4.7686201287551
4	61	2.4	4.9441068142747
4	62	2.5	5.0837696366945
4	63	2.6	5.2149758182048
4	64	2.7	5.3958676757711
4	74	2.8	5.5947220785405
4	75	2.9	5.7489208361834
4	85	3	5.9285425535986
4	86	3.1	6.0820278132033
4	87	3.2	6.3052810764663
4	88	3.3	6.5339874687629
4	89	3.4	6.6671070373502
4	90	3.5	6.8530724394625
4	91	3.6	7.025573599462
4	92	3.7	7.2032888737299
4	102	3.8	7.4060198578915
4	103	3.9	7.6653516482027
4	113	4	7.8876922936506
4	114	4.1	8.0646224074626
4	115	4.2	8.258361448953
4	116	4.3	8.4461951781042
4	117	4.4	8.6915752616665
4	118	4.5	8.8316394519877
4	119	4.6	9.0621353290371
4	120	4.7	9.2981840999984
4	130	4.8	9.4959723000881
4	131	4.9	9.7480609588186
4	141	5	9.9765023983527
4	142	5.1	10.203158103458
4	143	5.2	10.412720375944
4	144	5.3	10.67051636159
4	145	5.4	10.82406281655
4	146	5.5	10.958301151893
4	147	5.6	11.208610850291
4	148	5.7	11.36100739162
4	164	5.8	11.500997951317
4	180	5.9	11.665767609088
4	211	6	11.896531117919
4	212	6.1	12.135287673052
4	213	6.2	12.303459380211
4	214	6.3	12.461009990727
4	215	6.4	12.70663648101
4	216	6.5	12.914208951534
4	217	6.6	13.096078415939
4	218	6.7	13.22894966953
4	234	6.8	13.436066638862
4	250	6.9	13.666223284518
4	281	7	13.817435456445
4	282	7.1	14.004573156694
4	283	7.2	14.232069201788
4	284	7.3	14.367778263786
4	285	7.4	14.568272325122
4	286	7.5	14.797965245382
4	287	7.6	14.98549899454
4	288	7.7	15.132803589387
4	304	7.8	15.360050063243
4	320	7.9	15.569978141866
4	351	8	15.81564677048
4	352	8.1	15.970837853858
4	353	8.2	16.136375018223
4	354	8.3	16.322437128662
4	355	8.4	16.542127516421
4	356	8.5	16.749420143485
4	357	8.6	16.902072128102
4	358	8.7	17.144388838585
4	374	8.8	17.345672189414
4	390	8.9	17.603052444093
4	421	9	17.850814382667
4	422	9.1	18.087385627455
4	423	9.2	18.232049206519
4	424	9.3	18.384638033265
4	425	9.4	18.548209996699
4	426	9.5	18.705575738149
4	427	9.6	18.949724543139
4	428	9.7	19.082489779787
4	444	9.8	19.231226800212
4	460	9.9	19.456536844368
4	491	10	19.707834869314
4	492	10.1	19.88006561433
4	493	10.2	20.116151856056
4	515	10.3	20.297776694738
4	516	10.4	20.535395007907
4	517	10.5	20.788133165778
4	518	10.6	20.92823702883
4	519	10.7	21.094790880571
4	562	10.8	21.268167659256
4	584	10.9	21.478736564184
4	627	11	21.7055791855
4	628	11.1	21.937972694475
4	629	11.2	22.165301581451
4	651	11.3	22.364803481256
4	652	11.4	22.496878727556
4	653	11.5	22.753192602154
4	654	11.6	22.924949203564
4	655	11.7	23.065376323657
4	698	11.8	23.273068056423
4	720	11.9	23.462221324437
4	763	12	23.7138789264
4	764	12.1	23.874414301256
4	765	12.2	24.076710665352
4	787	12.3	24.242993268559
4	788	12.4	24.476071356784
4	789	12.5	24.627542472158
4	790	12.6	24.762249306538
4	791	12.7	24.717859278315
4	834	12.8	24.719752826363
4	856	12.9	24.723469551092
4	899	13	24.710064391871
4	900	13.1	24.744120260577
4	901	13.2	24.743302775217
4	923	13.3	24.707853965184
4	924	13.4	24.7797790552
4	925	13.5	24.794549958147
4	926	13.6	24.765655633519
4	927	13.7	24.687704524927
4	970	13.8	24.7328402447
4	992	13.9	24.727116199869
4	1035	14	24.711211382554
4	1036	14.1	24.261211382554
4	1037	14.2	23.838753761851
4	1059	14.3	23.388753761851
4	1060	14.4	22.938753761851
4	1061	14.5	22.53356691315
4	1062	14.6	22.08356691315
4	1063	14.7	21.63356691315
4	1106	14.8	21.184737398205
4	1128	14.9	20.734737398205
4	1171	15	20.284737398205
4	1172	15.1	19.84047157373
4	1173	15.2	19.39047157373
4	1201	15.3	18.94047157373
4	1202	15.4	18.49047157373
4	1203	15.5	18.04047157373
4	1258	15.6	17.59047157373
4	1259	15.7	17.14047157373
4	1314	15.8	16.69047157373
4	1342	15.9	16.24047157373
4	1397	16	15.813456668252
4	1398	16.1	15.363456668252
4	1399	16.2	14.913456668252
4	1427	16.3	14.463456668252
4	1428	16.4	14.013456668252
4	1429	16.5	13.563456668252
4	1484	16.6	13.113456668252
4	1485	16.7	12.663456668252
4	1540	16.8	12.213456668252
4	1568	16.9	11.763456668252
4	1623	17	11.313456668252
4	1624	17.1	10.863456668252
4	1625	17.2	10.413456668252
4	1653	17.3	9.9634566682522
4	1654	17.4	9.5134566682522
4	1655	17.5	9.0634566682522
4	1710	17.6	8.6134566682522
4	1711	17.7	8.1634566682522
4	1766	17.8	7.7134566682522
4	1794	17.9	7.2634566682522
4	1849	18	7.1960174094342
4	1850	18.1	7.2663763215594
4	1851	18.2	7.1633861277454
4	1879	18.3	7.1618162599151
4	1880	18.4	7.1604607553632
4	1881	18.5	7.2194173504031
4	1936	18.6	7.2512465180239
4	1937	18.7	7.1593882176248
4	1992	18.8	7.1888527392169
4	2020	18.9	7.1887246406303
4	2075	19	7.1987961037425
4	2076	19.1	7.2138050674988
4	2077	19.2	7.2068049065272
4	2105	19.3	7.3545161085428
4	2106	19.4	7.5104472959103
4	2107	19.5	7.7334095204031
4	2162	19.6	7.9483646393885
4	2163	19.7	8.1988413098167
4	2218	19.8	8.3327302166346
4	2246	19.9	8.4935093805465
4	2301	20	8.6897726399979
4	2302	20.1	8.8909191623182
4	2336	20.2	9.1075909255483
4	2370	20.3	9.2970923316121
4	2371	20.4	9.5140675361306
4	2372	20.5	9.6796048851606
4	2439	20.6	9.8285056564367
4	2440	20.7	9.9781479923442
4	2507	20.8	10.130032591318
4	2541	20.9	10.290166594339
4	2641	21	10.462914232976
4	2642	21.1	10.627605548943
4	2676	21.2	10.778214012526
4	2710	21.3	11.006755776835
4	2711	21.4	11.249777967489
4	2712	21.5	11.416137836929
4	2779	21.6	11.653602655734
4	2780	21.7	11.906013606199
4	2847	21.8	12.120148252495
4	2881	21.9	12.326891292126
4	2981	22	12.521748606247
4	2982	22.1	12.702361210579
4	3016	22.2	12.942891248266
4	3050	22.3	13.16962231381
4	3051	22.4	13.426359099638
4	3052	22.5	13.649221749123
4	3119	22.6	13.900297341346
4	3120	22.7	14.071317054892
4	3187	22.8	14.201938290728
4	3221	22.9	14.352618725341
4	3321	23	14.571770957007
4	3322	23.1	14.726581012599
4	3356	23.2	14.902163981573
4	3390	23.3	15.162155726949
4	3391	23.4	15.388885631172
4	3392	23.5	15.385337687749
4	3459	23.6	15.444119119092
4	3460	23.7	15.400501529146
4	3527	23.8	15.40497436197
4	3561	23.9	15.381125387321
4	3661	24	15.453939713195
4	3662	24.1	15.442392231102
4	3696	24.2	15.411628321346
4	3730	24.3	15.419272379915
4	3731	24.4	15.454529193134
4	3732	24.5	15.41001213439
4	3799	24.6	15.456916291711
4	3800	24.7	15.444812423542
4	3867	24.8	15.417390979135
4	3901	24.9	15.40069873417
4	4001	25	15.474144180799
4	4002	25.1	15.448468620446
4	4042	25.2	15.503238066966
4	4082	25.3	15.488631830022
4	4083	25.4	15.402359406769
4	4084	25.5	15.421927425908
4	4163	25.6	15.396161587057
4	4203	25.7	15.44318331809
4	4282	25.8	15.460540820889
4	4322	25.9	15.419851299778
4	4440	26	15.25537953259
4	4480	26.1	14.895114118627
4	4520	26.2	14.448218930392
4	4560	26.3	13.998218930392
4	4561	26.4	13.548218930392
4	4562	26.5	13.098218930392
4	4641	26.6	12.648218930392
4	4681	26.7	12.198218930392
4	4760	26.8	11.748218930392
4	4800	26.9	11.298218930392
4	4918	27	10.855032943567
4	4958	27.1	10.405032943567
4	4998	27.2	9.9550329435666
4	5038	27.3	9.5050329435666
4	5039	27.4	9.0550329435666
4	5040	27.5	8.6050329435666
4	5119	27.6	8.1550329435666
4	5159	27.7	7.7050329435666
4	5238	27.8	7.2550329435666
4	5278	27.9	7.1891373658695
4	5396	28	7.1361038530178
4	5436	28.1	7.1554385435048
4	5476	28.2	7.1702689641135
4	5516	28.3	7.1427944009987
4	5517	28.4	7.2083332877609
4	5518	28.5	7.2549038966538
4	5597	28.6	7.2365793357117
4	5637	28.7	7.2156843290318
4	5716	28.8	7.2297828522397
4	5756	28.9	7.1314615136132
4	5874	29	7.2270907726421
4	5914	29.1	7.4636557123976
4	5954	29.2	7.714775822135
4	5994	29.3	7.9722440409011
4	5995	29.4	8.145830399555
4	5996	29.5	8.3456119907836
4	6075	29.6	8.5803769599579
4	6115	29.7	8.7461355496666
4	6194	29.8	8.8857187648679
4	6234	29.9	9.0910922963431
4	6352	30	9.3374195263165
4	6392	30.1	9.5343140032285
4	6432	30.2	9.7649713493467
4	6472	30.3	10.023309843925
4	6473	30.4	10.166785546525
4	6474	30.5	10.36342723789
4	6565	30.6	10.516023662202
4	6611	30.7	10.76395803863
4	6702	30.8	10.90829597387
4	6748	30.9	11.0755069225
4	6884	31	11.2681801136
4	6930	31.1	11.426079580426
3	2	0.1	396.74225784379
3	3	0.2	396.76678923266
3	4	0.3	396.81636170789
3	5	0.4	396.8896705363
3	6	0.5	396.98545922075
3	7	0.6	397.10534434707
3	8	0.7	397.24797650645
3	18	0.8	397.41576532309
3	19	0.9	397.60009569723
3	29	1	397.8055636647
3	30	1.1	398.02626252094
3	31	1.2	398.26694145557
3	32	1.3	398.5272228803
3	33	1.4	398.81268577614
3	34	1.5	399.11466969551
3	35	1.6	399.44035369876
3	36	1.7	399.78713066715
3	46	1.8	400.15821902033
3	47	1.9	400.55437638038
3	57	2	400.96824559608
3	58	2.1	401.40510053499
3	59	2.2	401.85671506568
3	60	2.3	402.33004809805
3	61	2.4	402.8207999314
3	62	2.5	403.3254146906
3	63	2.6	403.84305296984
3	64	2.7	404.3786465672
3	74	2.8	404.93397844418
3	75	2.9	405.50461608332
3	85	3	406.09308296654
3	86	3.1	406.69678479014
3	87	3.2	407.32264672321
3	88	3.3	407.97121004311
3	89	3.4	408.63298680576
3	90	3.5	409.31322248637
3	91	3.6	410.01058062482
3	92	3.7	410.72557877388
3	102	3.8	411.46069999185
3	103	3.9	412.22156247237
3	113	4	413.00449447596
3	114	4.1	413.80498855516
3	115	4.2	414.62471316343
3	116	4.3	415.46308213972
3	117	4.4	416.32580753272
3	118	4.5	417.20243569134
3	119	4.6	418.10194286096
3	120	4.7	419.02488022161
3	130	4.8	419.96745003064
3	131	4.9	420.93504214928
3	141	5	421.92530935555
3	142	5.1	422.93807439752
3	143	5.2	423.9716405818
3	144	5.3	425.02944175288
3	145	5.4	426.10242667442
3	146	5.5	427.18871858726
3	147	5.6	428.29982359816
3	148	5.7	429.42603561589
3	164	5.8	430.56612484057
3	180	5.9	431.72254761406
3	211	6	432.90184587983
3	212	6.1	434.1048119853
3	213	6.2	435.32444888334
3	214	6.3	436.55970370898
3	215	6.4	437.81930738818
3	216	6.5	439.09948764151
3	217	6.6	440.3976965405
3	218	6.7	441.70907691252
3	234	6.8	443.04098870504
3	250	6.9	444.39571583174
3	281	7	445.76543255922
3	282	7.1	447.15370017041
3	283	7.2	448.56451937154
3	284	7.3	449.9887913565
3	285	7.4	451.43293823579
3	286	7.5	452.89985448035
3	287	7.6	454.38536086879
3	288	7.7	455.8854695015
3	304	7.8	457.40894653291
3	320	7.9	458.95339270081
3	351	8	460.52220768726
3	352	8.1	462.1073395044
3	353	8.2	463.71127756956
3	354	8.3	465.33371000542
3	355	8.4	466.97797942605
3	356	8.5	468.64285350756
3	357	8.6	470.32290102974
3	358	8.7	472.02703456847
3	374	8.8	473.75117545258
3	390	8.9	475.5008996531
3	421	9	477.2752511199
3	422	9.1	479.07311751023
3	423	9.2	480.88536330244
3	424	9.3	482.71277625748
3	425	9.4	484.55644808715
3	426	9.5	486.41576189978
3	427	9.6	488.29934383715
3	428	9.7	490.19612249414
3	444	9.8	492.09260038983
3	460	9.9	494.00507096601
3	491	10	495.94224275611
3	492	10.1	497.89611815907
3	493	10.2	499.87265086097
3	515	10.3	501.86702929379
3	516	10.4	503.88482307474
3	517	10.5	505.9276366491
3	518	10.6	507.98421798561
3	519	10.7	510.05716627853
3	562	10.8	512.14715200497
3	584	10.9	514.2578299703
3	627	11	516.39079936422
3	628	11.1	518.54660566277
3	629	11.2	520.7247511744
3	651	11.3	522.92250138963
3	652	11.4	525.13323040886
3	653	11.5	527.36914694532
3	654	11.6	529.62194170331
3	655	11.7	531.88853598938
3	698	11.8	534.17553853199
3	720	11.9	536.48112789725
3	763	12	538.8114471925
3	764	12.1	541.15754200397
3	765	12.2	543.52351610731
3	787	12.3	545.90583049644
3	788	12.4	548.31104904089
3	789	12.5	550.73115237344
3	790	12.6	553.16449309901
3	791	12.7	555.59347169809
3	834	12.8	558.02263637267
3	856	12.9	560.45216628295
3	899	13	562.88037889287
3	900	13.1	565.31193811041
3	901	13.2	567.74335131056
3	923	13.3	570.17127865063
3	924	13.4	572.60627373897
3	925	13.5	575.04272029612
3	926	13.6	577.47632754068
3	927	13.7	579.89701491365
3	970	13.8	582.31692999495
3	992	13.9	584.72788229729
3	1035	14	587.12462619504
3	1036	14.1	589.47010614584
3	1037	14.2	591.76622456823
3	1059	14.3	594.01440093798
3	1060	14.4	596.21856534648
3	1061	14.5	598.38379571175
3	1062	14.6	600.50578597801
3	1063	14.7	602.58453614525
3	1106	14.8	604.62015868436
3	1128	14.9	606.61254112445
3	1171	15	608.56168346554
3	1172	15.1	610.46813669943
3	1173	15.2	612.3309393705
3	1201	15.3	614.15001382789
3	1202	15.4	615.92586953529
3	1203	15.5	617.65850649268
3	1258	15.6	619.34792470008
3	1259	15.7	620.99412415747
3	1314	15.8	622.59710486486
3	1342	15.9	624.15686682226
3	1397	16	625.67571395798
3	1398	16.1	627.15165750562
3	1399	16.2	628.58437024845
3	1427	16.3	629.97385218646
3	1428	16.4	631.32010331967
3	1429	16.5	632.62312364807
3	1484	16.6	633.88291317166
3	1485	16.7	635.09947189043
3	1540	16.8	636.2727998044
3	1568	16.9	637.40289691356
3	1623	17	638.4897632179
3	1624	17.1	639.53339871744
3	1625	17.2	640.53380341216
3	1653	17.3	641.49097730208
3	1654	17.4	642.40492038718
3	1655	17.5	643.27563266748
3	1710	17.6	644.10311414296
3	1711	17.7	644.88736481363
3	1766	17.8	645.6283846795
3	1794	17.9	646.31497318626
3	1849	18	646.97204846074
3	1850	18.1	647.6355482752
3	1851	18.2	648.28964395595
3	1879	18.3	648.79078861691
3	1880	18.4	649.27909260063
3	1881	18.5	649.74012145449
3	1936	18.6	649.93363606764
3	1937	18.7	650.12469925076
3	1992	18.8	650.23318619794
3	2020	18.9	650.14221827293
3	2075	19	650.0511229011
3	2076	19.1	649.95983760208
3	2077	19.2	649.77931827268
3	2105	19.3	649.58407712306
3	2106	19.4	649.38469645102
3	2107	19.5	649.17939677624
3	2162	19.6	648.96839066423
3	2163	19.7	648.75073512045
3	2218	19.8	648.5295252131
3	2246	19.9	648.30404708356
3	2301	20	648.07335873166
3	2302	20.1	647.83733052085
3	2336	20.2	647.59555030087
3	2370	20.3	647.34873936618
3	2371	20.4	647.09616836682
3	2372	20.5	646.83920282922
3	2439	20.6	646.57828440643
3	2440	20.7	646.31339341206
3	2507	20.8	646.0444703205
3	2541	20.9	645.77129613392
3	2641	21	645.49353599674
3	2642	21.1	645.21140378104
3	2676	21.2	644.92527334586
3	2710	21.3	644.63307578728
3	2711	21.4	644.33442669183
3	2712	21.5	644.03136122258
3	2779	21.6	643.72199174862
3	2780	21.7	643.40592149335
3	2847	21.8	643.08416658202
3	2881	21.9	642.75692324043
3	2981	22	642.42450700025
3	2982	22.1	642.08729601736
3	3016	22.2	641.74369965705
3	3050	22.3	641.39408424216
3	3051	22.4	641.03765320752
3	3052	22.5	640.67530581357
3	3119	22.6	640.3062930882
3	3120	22.7	639.93274028365
3	3187	22.8	639.55571986276
3	3221	22.9	639.17469931176
3	3321	23	638.78786090232
3	3322	23.1	638.39691273327
3	3356	23.2	638.00130334379
3	3390	23.3	637.5987919248
3	3391	23.4	637.19026148206
3	3392	23.5	636.78182522696
3	3459	23.6	636.37182849472
3	3460	23.7	635.96298968345
3	3527	23.8	635.5540321314
3	3561	23.9	635.1457077007
3	3661	24	634.73545026007
3	3662	24.1	634.32549937172
3	3696	24.2	633.91636517627
3	3730	24.3	633.50702805316
3	3731	24.4	633.09675496354
3	3732	24.5	632.68766367319
3	3799	24.6	632.277327213
3	3800	24.7	631.86731207553
3	3867	24.8	631.45802489817
3	3901	24.9	631.04918085168
3	4001	25	630.63838704082
3	4002	25.1	630.22827484189
3	4042	25.2	629.81670867243
3	4082	25.3	629.40553025636
3	4083	25.4	628.9966421238
3	4084	25.5	628.58723451689
3	4163	25.6	628.17851091854
3	4203	25.7	627.76853902912
3	4282	25.8	627.35810634816
3	4322	25.9	626.9487538564
3	4440	26	626.54376761476
3	4480	26.1	626.14834537877
3	4520	26.2	625.7647869186
3	4560	26.3	625.39317465801
3	4561	26.4	625.03350859702
3	4562	26.5	624.68578873562
3	4641	26.6	624.35001507381
3	4681	26.7	624.02618761159
3	4760	26.8	623.71430634896
3	4800	26.9	623.41437128592
3	4918	27	623.12620153011
3	4958	27.1	622.8499779739
3	4998	27.2	622.58570061728
3	5038	27.3	622.33336946025
3	5039	27.4	622.0929845028
3	5040	27.5	621.86454574495
3	5119	27.6	621.6480531867
3	5159	27.7	621.44350682803
3	5238	27.8	621.1855499972
3	5278	27.9	620.89807625588
3	5396	28	620.61272317822
3	5436	28.1	620.27514955871
3	5476	28.2	619.75577648477
3	5516	28.3	619.23839351028
3	5517	28.4	618.6490123162
3	5518	28.5	617.95004658954
3	5597	28.6	617.25284632251
3	5637	28.7	616.54605861847
3	5716	28.8	615.82891803293
3	5756	28.9	615.12153019154
3	5874	29	614.40712897015
3	5914	29.1	613.68823697822
3	5954	29.2	612.94515734382
3	5994	29.3	612.17727862331
3	5995	29.4	611.39268023513
3	5996	29.5	610.58883908019
3	6075	29.6	609.76238559387
3	6115	29.7	608.91996640289
3	6194	29.8	608.06410269363
3	6234	29.9	607.18845760742
3	6352	30	606.28908652421
3	6392	30.1	605.37075075826
3	6432	30.2	604.43019830313
3	6472	30.3	603.4647629378
3	6473	30.4	602.48550813362
3	6474	30.5	601.48731299476
3	6565	30.6	600.47441991809
3	6611	30.7	599.43764604566
3	6702	30.8	598.38696968499
3	6748	30.9	597.32018772988
3	6884	31	596.23484768213
3	6930	31.1	595.13429891272
2	2	0.1	353.61974811072
2	3	0.2	353.61674240837
2	4	0.3	353.61066855312
2	5	0.4	353.60168640706
2	6	0.5	353.58994992221
2	7	0.6	353.57526102678
2	8	0.7	353.55778505676
2	18	0.8	353.53722677353
2	19	0.9	353.51464174007
2	29	1	353.48946682821
2	30	1.1	353.46242575548
2	31	1.2	353.43293662859
2	32	1.3	353.40104571145
2	33	1.4	353.36606944079
2	34	1.5	353.32906893582
2	35	1.6	353.28916458394
2	36	1.7	353.24667582172
2	46	1.8	353.2012083131
2	47	1.9	353.15266923062
2	57	2	353.10196000741
2	58	2.1	353.04843446415
2	59	2.2	352.99310050557
2	60	2.3	352.93510549294
2	61	2.4	352.87497624603
2	62	2.5	352.81314844756
2	63	2.6	352.74972494553
2	64	2.7	352.68410147258
2	74	2.8	352.61605957181
2	75	2.9	352.54614233633
2	85	3	352.47404057712
2	86	3.1	352.40007216061
2	87	3.2	352.32338858218
2	88	3.3	352.24392352195
2	89	3.4	352.16283948791
2	90	3.5	352.07949377952
2	91	3.6	351.99405014622
2	92	3.7	351.90644517498
2	102	3.8	351.81637462971
2	103	3.9	351.72315014262
2	113	4	351.62722159267
2	114	4.1	351.52914125376
2	115	4.2	351.42870469903
2	116	4.3	351.32598374773
2	117	4.4	351.2202785325
2	118	4.5	351.11286988435
2	119	4.6	351.00265799105
2	120	4.7	350.88957531938
2	130	4.8	350.77408718684
2	131	4.9	350.65553320201
2	141	5	350.53420095767
2	142	5.1	350.41011217159
2	143	5.2	350.2834747307
2	144	5.3	350.14310444457
2	145	5.4	350.00041850203
2	146	5.5	349.85596299073
2	147	5.6	349.70820782422
2	148	5.7	349.55844372221
2	164	5.8	349.40683422394
2	180	5.9	349.25305268415
2	211	6	349.0962291527
2	212	6.1	348.93625826293
2	213	6.2	348.77407048484
2	214	6.3	348.6098058288
2	215	6.4	348.44230325296
2	216	6.5	348.27206439647
2	217	6.6	348.09942808384
2	218	6.7	347.92504022372
2	234	6.8	347.7479220875
2	250	6.9	347.56776995947
2	281	7	347.38562450863
2	282	7.1	347.20101215423
2	283	7.2	347.01340088083
2	284	7.3	346.82400065113
2	285	7.4	346.63195745043
2	286	7.5	346.43688637088
2	287	7.6	346.23934316693
2	288	7.7	346.039858151
2	304	7.8	345.84382846156
2	320	7.9	345.6462506635
2	351	8	345.44555541298
2	352	8.1	345.25063733898
2	353	8.2	345.07364726716
2	354	8.3	344.89461639335
2	355	8.4	344.71317586945
2	356	8.5	344.52946167895
2	357	8.6	344.34407314179
2	358	8.7	344.15602678017
2	374	8.8	343.96577266405
2	390	8.9	343.77269550064
2	421	9	343.57690078739
2	422	9.1	343.37851126821
2	423	9.2	343.17853502232
2	424	9.3	342.9768851225
2	425	9.4	342.77344110142
2	426	9.5	342.56827103134
2	427	9.6	342.36042304169
2	428	9.7	342.151118831
2	444	9.8	341.83864558912
2	460	9.9	341.48060315248
2	491	10	341.11793628767
2	492	10.1	340.7509012124
2	493	10.2	340.37660764427
2	515	10.3	339.99893465201
2	516	10.4	339.61719971117
2	517	10.5	339.23175013091
2	518	10.6	338.84370277169
2	519	10.7	338.45256720287
2	562	10.8	338.05821691505
2	584	10.9	337.65996229896
2	627	11	337.25750161048
2	628	11.1	336.8507319261
2	629	11.2	336.43974715307
2	651	11.3	336.02506325406
2	652	11.4	335.60793044115
2	653	11.5	335.18604510551
2	654	11.6	334.76097509189
2	655	11.7	334.33330130553
2	698	11.8	333.90176992666
2	720	11.9	333.46672632793
2	763	12	333.02701641789
2	764	12.1	332.5843298124
2	765	12.2	332.1378921666
2	787	12.3	331.68837125851
2	788	12.4	331.23452854607
2	789	12.5	330.77787721042
2	790	12.6	330.31872809994
2	791	12.7	329.86040208278
2	834	12.8	329.40204095488
2	856	12.9	328.94361091035
2	899	13	328.48542942833
2	900	13.1	328.0266164721
2	901	13.2	327.56747070868
2	923	13.3	327.10896968908
2	924	13.4	326.64913396324
2	925	13.5	326.18902413531
2	926	13.6	325.7294504963
2	927	13.7	325.25059701727
2	970	13.8	324.74738612649
2	992	13.9	324.20475013822
2	1035	14	323.60940657546
2	1036	14.1	322.99528134946
2	1037	14.2	322.35963274665
2	1059	14.3	321.71379756507
2	1060	14.4	321.07673613633
2	1061	14.5	320.45092766909
2	1062	14.6	319.8376167266
2	1063	14.7	319.23680330887
2	1106	14.8	318.64845490885
2	1128	14.9	318.07260403358
2	1171	15	317.50925068307
2	1172	15.1	316.95823560619
2	1173	15.2	316.4202712879
2	1201	15.3	315.89546238805
2	1202	15.4	315.38312223819
2	1203	15.5	314.88325083834
2	1258	15.6	314.39584818848
2	1259	15.7	313.92091428863
2	1314	15.8	313.45844913877
2	1342	15.9	313.00845273892
2	1397	16	312.56996432896
2	1398	16.1	312.14288581566
2	1399	16.2	311.72831655305
2	1427	16.3	311.32625654113
2	1428	16.4	310.93670577991
2	1429	16.5	310.55966426938
2	1484	16.6	310.19513200955
2	1485	16.7	309.84310900041
2	1540	16.8	309.50359524196
2	1568	16.9	309.17659073421
2	1623	17	308.86209547715
2	1624	17.1	308.56010947078
2	1625	17.2	308.27063271511
2	1653	17.3	307.99366521014
2	1654	17.4	307.72920695585
2	1655	17.5	307.47725795226
2	1710	17.6	307.23781819936
2	1711	17.7	307.01088769716
2	1766	17.8	306.79646644565
2	1794	17.9	306.56402982756
2	1849	18	306.27069265145
2	1850	18.1	305.97448737714
2	1851	18.2	305.68248037681
2	1879	18.3	305.17654554129
2	1880	18.4	304.65285721092
2	1881	18.5	304.10733919212
2	1936	18.6	303.40853642242
2	1937	18.7	302.71858603893
2	1992	18.8	302.01981439028
2	2020	18.9	301.3067432362
2	2075	19	300.59267306348
2	2076	19.1	299.87711410665
2	2077	19.2	299.18006150353
2	2105	19.3	298.47091995309
2	2106	19.4	297.74674311245
2	2107	19.5	297.00106767486
2	2162	19.6	296.23466570624
2	2163	19.7	295.44411212631
2	2218	19.8	294.64064863014
2	2246	19.9	293.82168238927
2	2301	20	292.98379193503
2	2302	20.1	292.12650641053
2	2336	20.2	291.24832883169
2	2370	20.3	290.35187903495
2	2371	20.4	289.43450792528
2	2372	20.5	288.50117527435
2	2439	20.6	287.5534852242
2	2440	20.7	286.59136627125
2	2507	20.8	285.61460221067
2	2541	20.9	284.62239761348
2	2641	21	283.61353624017
2	2642	21.1	282.5887949023
2	2676	21.2	281.54953150509
2	2710	21.3	280.4882315172
2	2711	21.4	279.40349869832
2	2712	21.5	278.30272502861
2	2779	21.6	277.17905438413
2	2780	21.7	276.03104562004
2	2847	21.8	274.86238943703
2	2881	21.9	273.673798553
2	2981	22	272.46641902051
2	2982	22.1	271.24162435147
2	3016	22.2	269.99363715129
2	3050	22.3	268.72378795272
2	3051	22.4	267.42918352625
2	3052	22.5	266.11309010411
2	3119	22.6	264.77278732106
2	3120	22.7	263.41599437292
2	3187	22.8	262.04660658587
2	3221	22.9	260.66268979984
2	3321	23	259.25764178626
2	3322	23.1	257.83766658493
2	3356	23.2	256.40076121755
2	3390	23.3	254.93878677062
2	3391	23.4	253.45495043728
2	3392	23.5	251.97145620585
2	3459	23.6	250.4822941161
2	3460	23.7	248.9973377477
2	3527	23.8	247.51195009713
2	3561	23.9	246.02886202666
2	3661	24	244.53875300971
2	3662	24.1	243.04975743099
2	3696	24.2	241.56372818837
2	3730	24.3	240.07696188576
2	3731	24.4	238.58679602963
2	3732	24.5	237.10092262396
2	3799	24.6	235.61052659758
2	3800	24.7	234.12129765761
2	3867	24.8	232.63471276456
2	3901	24.9	231.14973738113
2	4001	25	229.65768019692
2	4002	25.1	228.16809871695
2	4042	25.2	226.67323622466
2	4082	25.3	225.17978210367
2	4083	25.4	223.69464659388
2	4084	25.5	222.20762428484
2	4163	25.6	220.72308638493
2	4203	25.7	219.23401452754
2	4282	25.8	217.74326901464
2	4322	25.9	216.25644689108
2	4440	26	214.78548356261
2	4480	26.1	213.34925796134
2	4520	26.2	211.95612315516
2	4560	26.3	210.6063785181
2	4561	26.4	209.30002405015
2	4562	26.5	208.03705975131
2	4641	26.6	206.81748562159
2	4681	26.7	205.64130166098
2	4760	26.8	204.50850786949
2	4800	26.9	203.41910424711
2	4918	27	202.37243376899
2	4958	27.1	201.36915345998
2	4998	27.2	200.40926332009
2	5038	27.3	199.49276334931
2	5039	27.4	198.61965354764
2	5040	27.5	197.78993391509
2	5119	27.6	197.00360445165
2	5159	27.7	196.26066515732
2	5238	27.8	195.58413989257
2	5278	27.9	194.92498293014
2	5396	28	194.27068849955
2	5436	28.1	193.65061862734
2	5476	28.2	193.15597760455
2	5516	28.3	192.66323191456
2	5517	28.4	192.28434354006
2	5518	28.5	192.08920082449
2	5597	28.6	191.89455100375
2	5637	28.7	191.86254522036
2	5716	28.8	191.95583180059
2	5756	28.9	192.04784973118
2	5874	29	192.15298138309
2	5914	29.1	192.35234094578
2	5954	29.2	192.55840810554
2	5994	29.3	192.77135242489
2	5995	29.4	192.98893335959
2	5996	29.5	193.21185060294
2	6075	29.6	193.44103858592
2	6115	29.7	193.67465409895
2	6194	29.8	193.91199797913
2	6234	29.9	194.15482753268
2	6352	30	194.40423666208
2	6392	30.1	194.65890498326
2	6432	30.2	194.91973432652
2	6472	30.3	195.18746407506
2	6473	30.4	195.45902616187
2	6474	30.5	195.73584068837
2	6565	30.6	196.01673117411
2	6611	30.7	196.30424416372
2	6702	30.8	196.59561252244
2	6748	30.9	196.89144720475
2	6884	31	197.19242832529
2	6930	31.1	197.49762705311
13	144	5.3	1.4237475739403
13	145	5.4	1.5730287651847
13	146	5.5	1.7387283407595
13	147	5.6	1.7793043319501
13	148	5.7	1.9262053066171
13	164	5.8	1.939760692878
13	180	5.9	2.3237843176544
13	211	6	2.0280669806211
13	212	6.1	2.5781387580259
13	213	6.2	2.6617996128199
13	214	6.3	2.7677707845532
13	215	6.4	2.8638279214713
13	216	6.5	2.4883403875669
13	217	6.6	2.8400120749216
13	218	6.7	2.5732601538176
13	234	6.8	2.7290191037298
13	250	6.9	2.9606993504764
13	281	7	3.6063941794717
13	282	7.1	3.4790564184252
13	283	7.2	3.9040375900899
13	284	7.3	3.3481584259729
13	285	7.4	3.5855776735302
13	286	7.5	4.2262046483294
13	287	7.6	4.2467297234806
13	288	7.7	4.8825617676011
13	304	7.8	3.6356514880674
13	320	7.9	4.3556398413022
13	351	8	4.7781196462533
13	352	8.1	3.6458863603121
13	353	8.2	4.9498934223353
13	354	8.3	4.2740156909101
13	355	8.4	3.697688597784
13	356	8.5	5.5191076207656
13	357	8.6	3.9552003379746
13	358	8.7	6.1159632029377
13	374	8.8	4.9628476791066
13	390	8.9	4.3312762967229
13	421	9	5.3480343029083
13	422	9.1	4.8480630661697
13	423	9.2	5.0926578673585
13	424	9.3	5.8420267481325
13	425	9.4	5.6082833547064
13	426	9.5	5.387763809142
13	427	9.6	4.4668301364503
13	428	9.7	6.0085477783899
13	444	9.8	7.1769734382348
13	460	9.9	5.5419081360351
13	491	10	7.190011352097
13	492	10.1	7.8805323328548
13	493	10.2	5.3504357666321
13	515	10.3	5.545036623828
13	516	10.4	7.7391216862905
13	517	10.5	7.3398259906855
13	518	10.6	5.5050411186061
13	519	10.7	5.3480766008472
13	562	10.8	7.1755487654217
13	584	10.9	8.7643406466891
13	627	11	6.9595609393066
13	628	11.1	7.8768676006877
13	629	11.2	6.5650473816747
13	651	11.3	6.2331322986623
13	652	11.4	6.9889893287991
13	653	11.5	7.5326580249215
13	654	11.6	8.2428693629126
13	655	11.7	9.0071791787559
13	698	11.8	9.9165207866014
13	720	11.9	9.7098752867392
13	763	12	9.8899881396187
13	764	12.1	9.0175829581779
13	765	12.2	10.325615391194
13	787	12.3	10.644276683442
13	788	12.4	3.0603742933579
13	789	12.5	0.973
13	790	12.6	2.3797885333587
13	791	12.7	0.973
13	834	12.8	0.973
13	856	12.9	0.973
13	899	13	1.4849235003659
13	900	13.1	2.471717733373
13	901	13.2	0.973
13	923	13.3	0.973
13	924	13.4	4.7617693645853
13	925	13.5	0.973
13	926	13.6	5.4813057833649
13	927	13.7	0.973
13	970	13.8	6.8650327393508
13	992	13.9	10.451610043257
13	1035	14	9.2215216194928
13	1036	14.1	9.1313135763686
13	1037	14.2	8.6362941121979
13	1059	14.3	3.9365737671983
13	1060	14.4	0.973
13	1061	14.5	3.0011632046521
13	1062	14.6	2.1660743125319
13	1063	14.7	2.1099588002943
13	1106	14.8	1.7038943556409
13	1128	14.9	4.1967508022813
13	1171	15	3.2473744804103
13	1172	15.1	0.973
13	1173	15.2	0.973
13	1201	15.3	5.0209719466997
13	1202	15.4	0.973
13	1203	15.5	1.3763266476852
13	1258	15.6	2.8583583017243
13	1259	15.7	1.0424127935938
13	1314	15.8	5.4483219793819
13	1342	15.9	2.3389030814887
13	1397	16	0.973
13	1398	16.1	2.2384735759463
13	1399	16.2	0.973
13	1427	16.3	0.973
13	1428	16.4	0.973
13	1429	16.5	0.973
13	1484	16.6	0.973
13	1485	16.7	0.973
13	1540	16.8	0.973
13	1568	16.9	0.973
13	1623	17	0.973
13	1624	17.1	0.973
13	1625	17.2	0.973
13	1653	17.3	0.973
13	1654	17.4	0.973
13	1655	17.5	0.973
13	1710	17.6	0.973
13	1711	17.7	0.973
13	1766	17.8	0.973
13	1794	17.9	0.973
13	1849	18	0.973
13	1850	18.1	5.4227345859838
13	1851	18.2	5.6012242714341
13	1879	18.3	5.779961836262
13	1880	18.4	5.9589570223749
13	1881	18.5	6.1382195716797
13	1936	18.6	3.9203525852173
13	1937	18.7	4.3513168537161
13	1992	18.8	4.3222661373164
13	2020	18.9	6.1430994021165
13	2075	19	6.5951527576206
13	2076	19.1	4.5507178167137
13	2077	19.2	3.7685421038588
13	2105	19.3	1.6967485929254
13	2106	19.4	1.6035415535329
13	2107	19.5	0.973
13	2162	19.6	2.683469406877
13	2163	19.7	3.0767993848892
13	2218	19.8	0.973
13	2246	19.9	0.973
13	2301	20	6.5063040523843
13	2302	20.1	5.2335907343678
13	2336	20.2	5.957088988282
13	2370	20.3	5.323766763708
13	2371	20.4	6.3417736404956
13	2372	20.5	5.7855462453197
13	2439	20.6	5.1782625252717
13	2440	20.7	5.4941796353129
13	2507	20.8	7.5508702736179
13	2541	20.9	5.4557532047559
13	2641	21	7.2334467085519
13	2642	21.1	5.4576919803009
13	2676	21.2	7.6892498008784
13	2710	21.3	7.958113365694
13	2711	21.4	6.4443020074055
13	2712	21.5	9.0428095743829
13	2779	21.6	8.4319933798808
13	2780	21.7	7.6422386048157
13	2847	21.8	6.4018285236532
13	2881	21.9	6.5114587173153
13	2981	22	9.7579942373989
13	2982	22.1	9.3540862863873
13	3016	22.2	7.8162815247755
13	3050	22.3	9.821724332618
13	3051	22.4	6.9726885907461
13	3052	22.5	10.195402701643
13	3119	22.6	7.46429980927
13	3120	22.7	6.9934681789467
13	3187	22.8	10.131546495075
13	3221	22.9	9.1244498010677
13	3321	23	6.8582939122984
13	3322	23.1	1.5364239964145
13	3356	23.2	0.973
13	3390	23.3	4.050819937833
13	3391	23.4	0.973
13	3392	23.5	4.5970169059307
13	3459	23.6	0.973
13	3460	23.7	5.2990272735002
13	3527	23.8	0.973
13	3561	23.9	0.973
13	3661	24	2.5982739735467
13	3662	24.1	1.2804263638215
13	3696	24.2	3.2560384561407
13	3730	24.3	0.973
13	3731	24.4	4.5833177595257
13	3732	24.5	3.607782330905
13	3799	24.6	0.973
13	3800	24.7	4.4615640515059
13	3867	24.8	0.973
13	3901	24.9	0.973
13	4001	25	3.460810414381
13	4002	25.1	2.9370802807955
13	4042	25.2	0.973
13	4082	25.3	0.973
13	4083	25.4	5.9353621610183
13	4084	25.5	0.973
13	4163	25.6	1.275612734458
13	4203	25.7	2.7470997720619
13	4282	25.8	1.1284797166512
13	4322	25.9	2.3589366442134
13	4440	26	3.226180655323
13	4480	26.1	0.973
13	4520	26.2	2.7441400450866
13	4560	26.3	3.2143173668565
13	4561	26.4	4.4622315302094
13	4562	26.5	0.973
13	4641	26.6	3.7758239052748
13	4681	26.7	0.973
13	4760	26.8	1.0484644876512
13	4800	26.9	5.4660747657369
13	4918	27	0.973
13	4958	27.1	1.2079638700244
13	4998	27.2	4.0465570144779
13	5038	27.3	2.9141031251959
13	5039	27.4	3.0042117813321
13	5040	27.5	0.973
13	5119	27.6	3.2013195395996
13	5159	27.7	3.4291192786982
13	5238	27.8	0.973
13	5278	27.9	1.2446261280771
13	5396	28	3.8702445329459
13	5436	28.1	0.973
13	5476	28.2	6.1370149224528
13	5516	28.3	0.973
13	5517	28.4	2.3957300031173
13	5518	28.5	0.973
13	5597	28.6	5.2411889524036
13	5637	28.7	0.973
13	5716	28.8	4.1409509498314
13	5756	28.9	0.973
13	5874	29	1.2632049564035
13	5914	29.1	2.0708683901108
13	5954	29.2	1.3591145504642
13	5994	29.3	3.857934217943
13	5995	29.4	3.6235237266204
13	5996	29.5	0.973
13	6075	29.6	4.5040681195597
13	6115	29.7	0.973
13	6194	29.8	3.642604699154
13	6234	29.9	1.1214611597147
13	6352	30	4.3207569061063
13	6392	30.1	1.8681617777864
13	6432	30.2	0.973
13	6472	30.3	3.3669122427379
13	6473	30.4	1.6049448975464
13	6474	30.5	1.8199966817025
13	6565	30.6	3.1055289311287
13	6611	30.7	4.0217967301274
13	6702	30.8	0.973
13	6748	30.9	2.9865078392453
13	6884	31	2.4256941358719
13	6930	31.1	1.2462459069158
13	7021	31.2	5.1711594715746
12	144	5.3	2.4160184257652
12	145	5.4	2.4032548486117
12	146	5.5	2.4528478518219
12	147	5.6	2.1224227347358
12	148	5.7	2.192954110136
12	164	5.8	1.9391276077785
12	180	5.9	2.5071834834149
12	211	6	1.6774750610347
12	212	6.1	2.4759244983791
12	213	6.2	2.3618361614463
12	214	6.3	2.306053972384
12	215	6.4	2.2496431840351
12	216	6.5	1.6239798524184
12	217	6.6	1.9549502176465
12	218	6.7	1.5406996498117
12	234	6.8	1.6391417283332
12	250	6.9	1.8031093417434
12	281	7	2.3465624085627
12	282	7.1	2.0966192031745
12	283	7.2	2.3663311781362
12	284	7.3	1.7753432478523
12	285	7.4	1.899525856832
12	286	7.5	2.3234931214945
12	287	7.6	2.2324047110509
12	288	7.7	2.5903387362603
12	304	7.8	1.6107781668426
12	320	7.9	2.0490346808452
12	351	8	2.2493991798954
12	352	8.1	1.4490376644069
12	353	8.2	2.2184246370569
12	354	8.3	1.7370591988321
12	355	8.4	1.348872832139
12	356	8.5	2.3616525236284
12	357	8.6	1.4128213726915
12	358	8.7	2.5535414493876
12	374	8.8	1.8613727044314
12	390	8.9	1.4857511598151
12	421	9	1.9688599430956
12	422	9.1	1.6695569721051
12	423	9.2	1.7501843167003
12	424	9.3	2.0642401226796
12	425	9.4	1.9023817824433
12	426	9.5	1.7567950280616
12	427	9.6	1.3055394293507
12	428	9.7	1.9625977421412
12	444	9.8	2.4154228030005
12	460	9.9	1.6665889565833
12	491	10	2.3114088772098
12	492	10.1	2.5282658430282
12	493	10.2	1.4680480054813
12	515	10.3	1.5192738080164
12	516	10.4	2.3312650997657
12	517	10.5	2.1271420360077
12	518	10.6	1.4058058243245
12	519	10.7	1.3267215030966
12	562	10.8	1.9650654530153
12	584	10.9	2.4832326556556
12	627	11	1.8047329799505
12	628	11.1	2.0842424115632
12	629	11.2	1.6043197818333
12	651	11.3	1.4688386279158
12	652	11.4	1.6951142302249
12	653	11.5	1.8430399890523
12	654	11.6	2.0367762609618
12	655	11.7	2.2375093692681
12	698	11.8	2.4715285003651
12	720	11.9	2.3583153906511
12	763	12	2.3649280806305
12	764	12.1	2.065569831524
12	765	12.2	2.4041965243872
12	787	12.3	2.4474117824575
12	788	12.4	0.27595285719014
12	789	12.5	-0.5535274089314
12	790	12.6	0.083277429454025
12	791	12.7	-0.72151244273428
12	834	12.8	-4.1588535864838
12	856	12.9	-4.5
12	899	13	-0.15531653636135
12	900	13.1	0.14675340293905
12	901	13.2	-0.45345167531631
12	923	13.3	-0.4077412160812
12	924	13.4	0.84852697364985
12	925	13.5	-0.90654725597705
12	926	13.6	1.0672538143815
12	927	13.7	-0.96059726236854
12	970	13.8	1.4834439461352
12	992	13.9	2.5224465359235
12	1035	14	2.1154755010968
12	1036	14.1	2.0526506200898
12	1037	14.2	1.8783325833268
12	1059	14.3	0.52681406855141
12	1060	14.4	-0.81284904372879
12	1061	14.5	0.26215903761331
12	1062	14.6	0.022523997235115
12	1063	14.7	0.0064087700331505
12	1106	14.8	-0.1098049777327
12	1128	14.9	0.60138523208442
12	1171	15	0.32826892952436
12	1172	15.1	-0.46133365319111
12	1173	15.2	-0.61428831371012
12	1201	15.3	0.83619994774926
12	1202	15.4	-0.42100736943539
12	1203	15.5	-0.20393415007275
12	1258	15.6	0.22025659945793
12	1259	15.7	-0.29965735399164
12	1314	15.8	0.95585744292475
12	1342	15.9	0.068889785255308
12	1397	16	-0.39831252426374
12	1398	16.1	0.041451701871118
12	1399	16.2	-4.296868622882
12	1427	16.3	-4.5
12	1428	16.4	-4.1552107036083
12	1429	16.5	-4.5
12	1484	16.6	-4.5
12	1485	16.7	-4.5
12	1540	16.8	-4.5
12	1568	16.9	-4.5
12	1623	17	-4.5
12	1624	17.1	-3.9404070783154
12	1625	17.2	-4.3669040069333
12	1653	17.3	-4.5
12	1654	17.4	-4.5
12	1655	17.5	-4.5
12	1710	17.6	-4.5
12	1711	17.7	-4.5
12	1766	17.8	-4.5
12	1794	17.9	-4.5
12	1849	18	-4.5
12	1850	18.1	2.6
12	1851	18.2	2.6
12	1879	18.3	2.6
12	1880	18.4	2.6
12	1881	18.5	2.6
12	1936	18.6	1.3270896761911
12	1937	18.7	1.528189688758
12	1992	18.8	1.4788391654845
12	2020	18.9	2.3642453478184
12	2075	19	2.5100635003298
12	2076	19.1	1.4594752020435
12	2077	19.2	1.0591450251576
12	2105	19.3	0.055616522859783
12	2106	19.4	0.010472366097378
12	2107	19.5	-0.61546003154945
12	2162	19.6	0.53382525343913
12	2163	19.7	0.71596989189276
12	2218	19.8	-0.30390642560087
12	2246	19.9	-0.89222200680524
12	2301	20	2.3290013018763
12	2302	20.1	1.6874481278472
12	2336	20.2	1.973814623151
12	2370	20.3	1.6503413632512
12	2371	20.4	2.0533005590551
12	2372	20.5	1.7712771047372
12	2439	20.6	1.4830634028185
12	2440	20.7	1.5859555665636
12	2507	20.8	2.3774899824522
12	2541	20.9	1.4992783194408
12	2641	21	2.1594768504845
12	2642	21.1	1.4386967624538
12	2676	21.2	2.2483073102078
12	2710	21.3	2.2949710523244
12	2711	21.4	1.7016462402884
12	2712	21.5	2.5851844382472
12	2779	21.6	2.3134741289308
12	2780	21.7	1.9967301370576
12	2847	21.8	1.5444638032
12	2881	21.9	1.5571256117662
12	2981	22	2.5863150627585
12	2982	22.1	2.4002554730978
12	3016	22.2	1.8704351926921
12	3050	22.3	2.4552982720779
12	3051	22.4	1.5421559548006
12	3052	22.5	2.484339174442
12	3119	22.6	1.6313696220284
12	3120	22.7	1.4701124272542
12	3187	22.8	2.3541552342707
12	3221	22.9	2.0253044708632
12	3321	23	1.356566951876
12	3322	23.1	-0.15961933878717
12	3356	23.2	-0.83605457062367
12	3390	23.3	0.55956437916029
12	3391	23.4	-0.80108916054014
12	3392	23.5	0.71635026207661
12	3459	23.6	-0.38368770075031
12	3460	23.7	0.91217373907567
12	3527	23.8	-0.38650622300338
12	3561	23.9	-0.75819446009119
12	3661	24	0.14665564158932
12	3662	24.1	-0.2311100573279
12	3696	24.2	0.33481679940596
12	3730	24.3	-0.32088445983828
12	3731	24.4	0.71222974706908
12	3732	24.5	0.43070312263444
12	3799	24.6	-0.72713217309211
12	3800	24.7	0.67450555465184
12	3867	24.8	-0.43055978254415
12	3901	24.9	-0.5965014172485
12	4001	25	0.39274668761063
12	4002	25.1	0.24159258317667
12	4042	25.2	-0.39544221560936
12	4082	25.3	-0.32706257451791
12	4083	25.4	1.0950250247726
12	4084	25.5	-0.82225183341652
12	4163	25.6	-0.23253535307013
12	4203	25.7	0.1894090837799
12	4282	25.8	-0.27471032626927
12	4322	25.9	0.07873610653915
12	4440	26	0.32618203740567
12	4480	26.1	-0.3417395788245
12	4520	26.2	0.18865937155207
12	4560	26.3	0.32189096987713
12	4561	26.4	0.67402398346458
12	4562	26.5	-0.67290130490436
12	4641	26.6	0.47961376735474
12	4681	26.7	-0.60846046074293
12	4760	26.8	-0.29785882071593
12	4800	26.9	0.96146680070088
12	4918	27	-0.79247242463753
12	4958	27.1	-0.2519452502951
12	4998	27.2	0.55983973790426
12	5038	27.3	0.23459256167989
12	5039	27.4	0.25909058293328
12	5040	27.5	-0.78047350458801
12	5119	27.6	0.31773805844132
12	5159	27.7	0.38076707066503
12	5238	27.8	-0.42170308993665
12	5278	27.9	-0.24183410413096
12	5396	28	0.50769557841122
12	5436	28.1	-0.80631320022512
12	5476	28.2	1.1515972555848
12	5516	28.3	-0.5966003472451
12	5517	28.4	0.086975492094634
12	5518	28.5	-0.45250276373698
12	5597	28.6	0.896837629145
12	5637	28.7	-0.51672549408394
12	5716	28.8	0.58260234612971
12	5756	28.9	-0.59496614278761
12	5874	29	-0.23653804783242
12	5914	29.1	-0.0049716921756193
12	5954	29.2	-0.20869894847273
12	5994	29.3	0.50544336317106
12	5995	29.4	0.43573527571281
12	5996	29.5	-0.69197135441938
12	6075	29.6	0.68695748047903
12	6115	29.7	-0.89112954658921
12	6194	29.8	0.44393475202378
12	6234	29.9	-0.2771728673717
12	6352	30	0.63532480602152
12	6392	30.1	-0.064584633125921
12	6432	30.2	-0.69469888051973
12	6472	30.3	0.3652454894269
12	6473	30.4	-0.13877393491567
12	6474	30.5	-0.076969359791832
12	6565	30.6	0.29005725730675
12	6611	30.7	0.54842786630616
12	6702	30.8	-1.2485155775212
12	6748	30.9	0.2581398961367
12	6884	31	0.096855909656739
12	6930	31.1	-0.24102448702324
12	7021	31.2	0.87831697773654
11	143	5.2	0.25599684562138
11	144	5.3	0.4975986881979
11	145	5.4	0.73792417305907
11	146	5.5	0.98320895824126
11	147	5.6	1.1954512317148
11	148	5.7	1.4147466427284
11	164	5.8	1.6086594035063
11	180	5.9	1.8593777518478
11	211	6	2.0271252579513
11	212	6.1	2.2747177077892
11	213	6.2	2.5109013239338
11	214	6.3	2.7415067211722
11	215	6.4	2.9664710395757
11	216	6.5	3.1288690248176
11	217	6.6	3.3243640465822
11	218	6.7	3.4784340115634
11	234	6.8	3.6423481843967
11	250	6.9	3.822659118571
11	281	7	4.0573153594273
11	282	7.1	4.2669772797448
11	283	7.2	4.5036103975584
11	284	7.3	4.6811447223436
11	285	7.4	4.8710973080268
11	286	7.5	5.1034466201763
11	287	7.6	5.3266870912814
11	288	7.7	5.5857209649074
11	304	7.8	5.7467987815917
11	320	7.9	5.9517022496762
11	351	8	6.1766421676657
11	352	8.1	6.3215459341064
11	353	8.2	6.5433883978121
11	354	8.3	6.7170943176953
11	355	8.4	6.8519816009092
11	356	8.5	7.0881468532721
11	357	8.6	7.2294289905412
11	358	8.7	7.48478313548
11	374	8.8	7.6709204059231
11	390	8.9	7.8194955219046
11	421	9	8.0163815162142
11	422	9.1	8.1833372134247
11	423	9.2	8.3583556450947
11	424	9.3	8.5647796573627
11	425	9.4	8.755017835607
11	426	9.5	8.9306973384132
11	427	9.6	9.0612512813482
11	428	9.7	9.2575110555624
11	444	9.8	9.4990533358624
11	460	9.9	9.6657122315207
11	491	10	9.8968531192417
11	492	10.1	10.149679703545
11	493	10.2	10.296484504093
11	515	10.3	10.448411884894
11	516	10.4	10.681538394871
11	517	10.5	10.894252598472
11	518	10.6	11.034833180904
11	519	10.7	11.167505331214
11	562	10.8	11.364011876515
11	584	10.9	11.612335142081
11	627	11	11.792808440076
11	628	11.1	12.001232681232
11	629	11.2	12.161664659416
11	651	11.3	12.308548522207
11	652	11.4	12.47805994523
11	653	11.5	12.662363944135
11	654	11.6	12.866041570231
11	655	11.7	13.089792507158
11	698	11.8	13.336945357194
11	720	11.9	13.572776896259
11	763	12	13.809269704323
11	764	12.1	14.015826687475
11	765	12.2	14.256246339914
11	787	12.3	14.500987518159
11	788	12.4	14.528582803878
11	789	12.5	14.473230062985
11	790	12.6	14.481557805931
11	791	12.7	14.409406561657
11	834	12.8	13.993521203009
11	856	12.9	13.543521203009
11	899	13	13.527989549373
11	900	13.1	13.542664889667
11	901	13.2	13.497319722135
11	923	13.3	13.456545600527
11	924	13.4	13.541398297892
11	925	13.5	13.450743572294
11	926	13.6	13.557468953732
11	927	13.7	13.461409227495
11	970	13.8	13.609753622109
11	992	13.9	13.861998275701
11	1035	14	14.073545825811
11	1036	14.1	14.27881088782
11	1037	14.2	14.466644146153
11	1059	14.3	14.519325553008
11	1060	14.4	14.438040648635
11	1061	14.5	14.464256552396
11	1062	14.6	14.46650895212
11	1063	14.7	14.467149829123
11	1106	14.8	14.45616933135
11	1128	14.9	14.516307854558
11	1171	15	14.549134747511
11	1172	15.1	14.503001382192
11	1173	15.2	14.441572550821
11	1201	15.3	14.525192545596
11	1202	15.4	14.483091808652
11	1203	15.5	14.462698393645
11	1258	15.6	14.48472405359
11	1259	15.7	14.454758318191
11	1314	15.8	14.550344062484
11	1342	15.9	14.557233041009
11	1397	16	14.517401788583
11	1398	16.1	14.52154695877
11	1399	16.2	14.091860096482
11	1427	16.3	13.641860096482
11	1428	16.4	13.226339026121
11	1429	16.5	12.776339026121
11	1484	16.6	12.326339026121
11	1485	16.7	11.876339026121
11	1540	16.8	11.426339026121
11	1568	16.9	10.976339026121
11	1623	17	10.526339026121
11	1624	17.1	10.13229831829
11	1625	17.2	9.6956079175962
11	1653	17.3	9.2456079175962
11	1654	17.4	8.7956079175962
11	1655	17.5	8.3456079175962
11	1710	17.6	7.8956079175962
11	1711	17.7	7.4456079175962
11	1766	17.8	6.9956079175962
11	1794	17.9	6.5456079175962
11	1849	18	6.0956079175962
11	1850	18.1	6.3556079175962
11	1851	18.2	6.6156079175962
11	1879	18.3	6.8756079175962
11	1880	18.4	7.1356079175962
11	1881	18.5	7.3956079175962
11	1936	18.6	7.5283168852153
11	1937	18.7	7.6811358540911
11	1992	18.8	7.8290197706395
11	2020	18.9	8.0654443054214
11	2075	19	8.3164506554544
11	2076	19.1	8.4623981756587
11	2077	19.2	8.5683126781745
11	2105	19.3	8.5738743304605
11	2106	19.4	8.5749215670702
11	2107	19.5	8.5133755639152
11	2162	19.6	8.5667580892592
11	2163	19.7	8.6383550784484
11	2218	19.8	8.6079644358883
11	2246	19.9	8.5187422352078
11	2301	20	8.7516423653954
11	2302	20.1	8.9203871781802
11	2336	20.2	9.1177686404953
11	2370	20.3	9.2828027768204
11	2371	20.4	9.4881328327259
11	2372	20.5	9.6652605431996
11	2439	20.6	9.8135668834815
11	2440	20.7	9.9721624401378
11	2507	20.8	10.209911438383
11	2541	20.9	10.359839270327
11	2641	21	10.575786955376
11	2642	21.1	10.719656631621
11	2676	21.2	10.944487362642
11	2710	21.3	11.173984467874
11	2711	21.4	11.344149091903
11	2712	21.5	11.602667535728
11	2779	21.6	11.834014948621
11	2780	21.7	12.033687962327
11	2847	21.8	12.188134342647
11	2881	21.9	12.343846903823
11	2981	22	12.602478410099
11	2982	22.1	12.842503957409
11	3016	22.2	13.029547476678
11	3050	22.3	13.275077303886
11	3051	22.4	13.429292899366
11	3052	22.5	13.67772681681
11	3119	22.6	13.840863779013
11	3120	22.7	13.987875021738
11	3187	22.8	14.223290545165
11	3221	22.9	14.425820992252
11	3321	23	14.561477687439
11	3322	23.1	14.545515753561
11	3356	23.2	14.461910296498
11	3390	23.3	14.517866734414
11	3391	23.4	14.43775781836
11	3392	23.5	14.509392844568
11	3459	23.6	14.471024074493
11	3460	23.7	14.5622414484
11	3527	23.8	14.5235908261
11	3561	23.9	14.447771380091
11	3661	24	14.46243694425
11	3662	24.1	14.439325938517
11	3696	24.2	14.472807618458
11	3730	24.3	14.440719172474
11	3731	24.4	14.511942147181
11	3732	24.5	14.555012459444
11	3799	24.6	14.482299242135
11	3800	24.7	14.5497497976
11	3867	24.8	14.506693819346
11	3901	24.9	14.447043677621
11	4001	25	14.486318346382
11	4002	25.1	14.5104776047
11	4042	25.2	14.470933383139
11	4082	25.3	14.438227125687
11	4083	25.4	14.547729628164
11	4084	25.5	14.465504444823
11	4163	25.6	14.442250909516
11	4203	25.7	14.461191817894
11	4282	25.8	14.433720785267
11	4322	25.9	14.441594395921
11	4440	26	14.474212599661
11	4480	26.1	14.440038641779
11	4520	26.2	14.458904578934
11	4560	26.3	14.491093675922
11	4561	26.4	14.558496074268
11	4562	26.5	14.491205943778
11	4641	26.6	14.539167320513
11	4681	26.7	14.478321274439
11	4760	26.8	14.448535392367
11	4800	26.9	14.544682072437
11	4918	27	14.465434829974
11	4958	27.1	14.440240304944
11	4998	27.2	14.496224278734
11	5038	27.3	14.519683534902
11	5039	27.4	14.545592593196
11	5040	27.5	14.467545242737
11	5119	27.6	14.499319048581
11	5159	27.7	14.537395755648
11	5238	27.8	14.495225446654
11	5278	27.9	14.471042036241
11	5396	28	14.521811594082
11	5436	28.1	14.441180274059
11	5476	28.2	14.556339999618
11	5516	28.3	14.496679964893
11	5517	28.4	14.505377514103
11	5518	28.5	14.460127237729
11	5597	28.6	14.549811000644
11	5637	28.7	14.498138451235
11	5716	28.8	14.556398685848
11	5756	28.9	14.49690207157
11	5874	29	14.473248266786
11	5914	29.1	14.472751097569
11	5954	29.2	14.451881202721
11	5994	29.3	14.502425539039
11	5995	29.4	14.54599906661
11	5996	29.5	14.476801931168
11	6075	29.6	14.545497679216
11	6115	29.7	14.456384724557
11	6194	29.8	14.500778199759
11	6234	29.9	14.473060913022
11	6352	30	14.536593393624
11	6392	30.1	14.530134930312
11	6432	30.2	14.46066504226
11	6472	30.3	14.497189591202
11	6473	30.4	14.483312197711
11	6474	30.5	14.475615261732
11	6565	30.6	14.504620987462
11	6611	30.7	14.559463774093
11	6702	30.8	14.434612216341
11	6748	30.9	14.460426205954
11	6884	31	14.47011179692
11	6930	31.1	14.446009348218
11	7021	31.2	14.533841045991
10	142	5.1	613.77016359918
10	143	5.2	613.77709139385
10	144	5.3	613.79055742515
10	145	5.4	613.81052715226
10	146	5.5	613.83713478392
10	147	5.6	613.86948612263
10	148	5.7	613.90777204064
10	164	5.8	613.95130563186
10	180	5.9	614.00162417088
10	211	6	614.05648229818
10	212	6.1	614.11804078011
10	213	6.2	614.18599087048
10	214	6.3	614.26018161133
10	215	6.4	614.34046034362
10	216	6.5	614.42513389528
10	217	6.6	614.51509793935
10	218	6.7	614.60923142964
10	234	6.8	614.70780077042
10	250	6.9	614.81124969135
10	281	7	614.92104888683
10	282	7.1	615.03652195977
10	283	7.2	615.15839880557
10	284	7.3	615.28508009083
10	285	7.4	615.41690187892
10	286	7.5	615.55501151138
10	287	7.6	615.69916248447
10	288	7.7	615.85032344037
10	304	7.8	616.0058434892
10	320	7.9	616.16690864211
10	351	8	616.33406112612
10	352	8.1	616.50513500041
10	353	8.2	616.68221238241
10	354	8.3	616.86399059946
10	355	8.4	617.0494191404
10	356	8.5	617.24123879281
10	357	8.6	617.43688182684
10	358	8.7	617.63943526275
10	374	8.8	617.8470259513
10	390	8.9	618.05863738431
10	421	9	618.27557695227
10	422	9.1	618.49703468054
10	423	9.2	618.72322876309
10	424	9.3	618.95500909874
10	425	9.4	619.19193766594
10	426	9.5	619.43362047735
10	427	9.6	619.67883634365
10	428	9.7	619.92936339812
10	444	9.8	620.18642707735
10	460	9.9	620.44587460008
10	491	10	620.70887747882
10	492	10.1	620.97859907095
10	493	10.2	621.25222191175
10	515	10.3	621.52988213069
10	516	10.4	621.81373754548
10	517	10.5	622.10324571142
10	518	10.6	622.39648972121
10	519	10.7	622.69325941305
10	562	10.8	622.99525114735
10	584	10.9	623.30384192206
10	627	11	623.61722866538
10	628	11.1	623.9361541567
10	629	11.2	624.25743143921
10	651	11.3	624.57752516842
10	652	11.4	624.90202717886
10	653	11.5	625.23132216341
10	654	11.6	625.56591394885
10	655	11.7	625.90632455783
10	698	11.8	626.25316257597
10	720	11.9	626.60613358344
10	763	12	626.96525477708
10	764	12.1	627.32974765161
10	765	12.2	627.70049283308
10	787	12.3	628.07760270622
10	788	12.4	628.45543021702
10	789	12.5	628.83181823517
10	790	12.6	629.03181509837
10	791	12.7	628.4393236512
10	834	12.8	627.86393273603
10	856	12.9	627.38931904541
10	899	13	626.92590774815
10	900	13.1	626.61486595513
10	901	13.2	626.43750655713
10	923	13.3	626.4721204832
10	924	13.4	626.60950059478
10	925	13.5	626.86284691995
10	926	13.6	627.15211437362
10	927	13.7	627.44550334482
10	970	13.8	627.75227657199
10	992	13.9	628.06473556751
10	1035	14	628.38196299062
10	1036	14.1	628.70381722971
10	1037	14.2	629.0299053599
10	1059	14.3	629.35718096531
10	1060	14.4	629.68262435296
10	1061	14.5	630.00865866514
10	1062	14.6	630.33474374797
10	1063	14.7	630.6608432766
10	1106	14.8	630.98669529725
10	1128	14.9	631.31390288166
10	1171	15	631.64185040687
10	1172	15.1	631.7088406912
10	1173	15.2	630.29907952242
10	1201	15.3	628.88115551534
10	1202	15.4	627.46734130891
10	1203	15.5	626.05551787214
10	1258	15.6	624.64154432879
10	1259	15.7	623.23049598836
10	1314	15.8	621.810116734
10	1342	15.9	620.38906498954
10	1397	16	618.9719015026
10	1398	16.1	617.55433337136
10	1399	16.2	616.17871052351
10	1427	16.3	614.84701589218
10	1428	16.4	613.55588370429
10	1429	16.5	612.30867973292
10	1484	16.6	611.1492028506
10	1485	16.7	610.07671549117
10	1540	16.8	609.32805652709
10	1568	16.9	609.11154553338
10	1623	17	609.29226462184
10	1624	17.1	609.46621871087
10	1625	17.2	609.63267557878
10	1653	17.3	609.81506602685
10	1654	17.4	610.05235413044
10	1655	17.5	610.27750212415
10	1710	17.6	610.49051000797
10	1711	17.7	610.69137778191
10	1766	17.8	610.88010544596
10	1794	17.9	611.05669300013
10	1849	18	611.20454214522
10	1850	18.1	611.28461233769
10	1851	18.2	611.36795810194
10	1879	18.3	611.45457943799
10	1880	18.4	611.54447634584
10	1881	18.5	611.63764882549
10	1936	18.6	611.53210332151
10	1937	18.7	611.32015749863
10	1992	18.8	611.1041311102
10	2020	18.9	610.88158105215
10	2075	19	610.48036218429
10	2076	19.1	609.90670474454
10	2077	19.2	609.32586746746
10	2105	19.3	608.74465317158
10	2106	19.4	608.05527967526
10	2107	19.5	607.29286297845
10	2162	19.6	606.52566560113
10	2163	19.7	605.75205634411
10	2218	19.8	604.98116872589
10	2246	19.9	604.18123062807
10	2301	20	603.35293145866
10	2302	20.1	602.50866143686
10	2336	20.2	601.64571024707
10	2370	20.3	600.76713940186
10	2371	20.4	599.86913509403
10	2372	20.5	598.9543665345
10	2439	20.6	598.02556152177
10	2440	20.7	597.08174623298
10	2507	20.8	596.11542919086
10	2541	20.9	595.13492222946
10	2641	21	594.13397689997
10	2642	21.1	593.11941502533
10	2676	21.2	592.08357404672
10	2710	21.3	591.02601231517
10	2711	21.4	589.95234535322
10	2712	21.5	588.8542109138
10	2779	21.6	587.73418059908
10	2780	21.7	586.59525223249
10	2847	21.8	585.44170628862
10	2881	21.9	584.2734229298
10	2981	22	583.08066139273
10	2982	22.1	581.86518263833
10	3016	22.2	580.63200115054
10	3050	22.3	579.37558149287
10	3051	22.4	578.10456610056
10	3052	22.5	576.81003768076
10	3119	22.6	575.50006916359
10	3120	22.7	574.17618676773
10	3187	22.8	572.83002347025
10	3221	22.9	571.46469167913
10	3321	23	570.08652066043
10	3322	23.1	568.70986035892
10	3356	23.2	567.34111289568
10	3390	23.3	565.96706943552
10	3391	23.4	564.60060788352
10	3392	23.5	563.22736643464
10	3459	23.6	561.85775639791
10	3460	23.7	560.47951309306
10	3527	23.8	559.10492787625
10	3561	23.9	557.73751859073
10	3661	24	556.36872128291
10	3662	24.1	555.00211131618
10	3696	24.2	553.63233247594
10	3730	24.3	552.26559064658
10	3731	24.4	550.89210791896
10	3732	24.5	549.51454880175
10	3799	24.6	548.14387162681
10	3800	24.7	546.76681059421
10	3867	24.8	545.39382459457
10	3901	24.9	544.02648418244
10	4001	25	542.65542661938
10	4002	25.1	541.28208250339
10	4042	25.2	539.91248105014
10	4082	25.3	538.54597508054
10	4083	25.4	537.16910524688
10	4084	25.5	535.80001761548
10	4163	25.6	534.43313081488
10	4203	25.7	533.06445135205
10	4282	25.8	531.69837188503
10	4322	25.9	530.3136852446
10	4440	26	528.91273881127
10	4480	26.1	527.51510004556
10	4520	26.2	526.11563526222
10	4560	26.3	524.71305492422
10	4561	26.4	523.30395076677
10	4562	26.5	521.90135956246
10	4641	26.6	520.49412621826
10	4681	26.7	519.09278210987
10	4760	26.8	517.69432095107
10	4800	26.9	516.28655383883
10	4918	27	514.88645699819
10	4958	27.1	513.48879871368
10	4998	27.2	512.08572178909
10	5038	27.3	510.68037426353
10	5039	27.4	509.27251902278
10	5040	27.5	507.87221791712
10	5119	27.6	506.46884145246
10	5159	27.7	505.06177957648
10	5238	27.8	503.65879932798
10	5278	27.9	502.25815977072
10	5396	28	500.85260627217
10	5436	28.1	499.45485700887
10	5476	28.2	498.04596153601
10	5516	28.3	496.64284050596
10	5517	28.4	495.2388776477
10	5518	28.5	493.83929452428
10	5597	28.6	492.43103098755
10	5637	28.7	491.02776879187
10	5716	28.8	489.61886763883
10	5756	28.9	488.21572511126
10	5874	29	486.81487201487
10	5914	29.1	485.41406703905
10	5954	29.2	484.01528204218
10	5994	29.3	482.61160490302
10	5995	29.4	481.20371032006
10	5996	29.5	479.80251326758
10	6075	29.6	478.39466721348
10	6115	29.7	476.99544632465
10	6194	29.8	475.59192863002
10	6234	29.9	474.19109366743
10	6352	30	472.78410945137
10	6392	30.1	471.37775034435
10	6432	30.2	469.9781151673
10	6472	30.3	468.57494481097
10	6473	30.4	467.17311763546
10	6474	30.5	465.77203543969
10	6565	30.6	464.36814580498
10	6611	30.7	462.95894798471
10	6702	30.8	461.56183443799
10	6748	30.9	460.1622223777
10	6884	31	458.7616728575
10	6930	31.1	457.36345619231
10	7021	31.2	455.95673837358
9	142	5.1	29.478793456033
9	143	5.2	29.503433370553
9	144	5.3	29.551327668286
9	145	5.4	29.622353498712
9	146	5.5	29.716988198715
9	147	5.6	29.832051398387
9	148	5.7	29.968221968225
9	164	5.8	30.123056806518
9	180	5.9	30.30202349947
9	211	6	30.497136032819
9	212	6.1	30.716079550433
9	213	6.2	30.957755942348
9	214	6.3	31.221628300241
9	215	6.4	31.507153665468
9	216	6.5	31.808309975151
9	217	6.6	32.128282847255
9	218	6.7	32.463085084769
9	234	6.8	32.813664201086
9	250	6.9	33.181598398456
9	281	7	33.572118458955
9	282	7.1	33.982818657932
9	283	7.2	34.416294996129
9	284	7.3	34.86685916436
9	285	7.4	35.335706430818
9	286	7.5	35.82691751655
9	287	7.6	36.339615687844
9	288	7.7	36.877246090193
9	304	7.8	37.430380369648
9	320	7.9	38.0032367825
9	351	8	38.597743854126
9	352	8.1	39.20619803674
9	353	8.2	39.836004745514
9	354	8.3	40.482530797088
9	355	8.4	41.142039864605
9	356	8.5	41.824280038894
9	357	8.6	42.520118739279
9	358	8.7	43.240535493696
9	374	8.8	43.978868118997
9	390	8.9	44.731501225809
9	421	9	45.503084777335
9	422	9.1	46.290737956978
9	423	9.2	47.095236809798
9	424	9.3	47.919604149689
9	425	9.4	48.762282076333
9	426	9.5	49.621869304816
9	427	9.6	50.494022461548
9	428	9.7	51.385065788778
9	444	9.8	52.299357766299
9	460	9.9	53.230648938849
9	491	10	54.18540418094
9	492	10.1	55.164549752341
9	493	10.2	56.157857669206
9	515	10.3	57.165822109867
9	516	10.4	58.196276402078
9	517	10.5	59.247251358636
9	518	10.6	60.311788206676
9	519	10.7	61.389124015099
9	562	10.8	62.48541692554
9	584	10.9	63.605665727482
9	627	11	64.743324894642
9	628	11.1	65.901090870949
9	629	11.2	67.074569427264
9	651	11.3	68.262844941108
9	652	11.4	69.467485201203
9	653	11.5	70.689918292728
9	654	11.6	71.932014558621
9	655	11.7	73.195711889747
9	698	11.8	74.483269522463
9	720	11.9	75.793594489829
9	763	12	77.126750631197
9	764	12.1	78.47984792199
9	765	12.2	79.85615548697
9	787	12.3	81.256090529131
9	788	12.4	82.658689638648
9	789	12.5	84.055944957506
9	790	12.6	85.439782953608
9	791	12.7	86.752991608907
9	834	12.8	88.028298338805
9	856	12.9	89.29654683873
9	899	13	90.567739296364
9	900	13.1	91.877829611298
9	901	13.2	93.216086887144
9	923	13.3	94.553489354486
9	924	13.4	95.900871218022
9	925	13.5	97.220574300045
9	926	13.6	98.545335392225
9	927	13.7	99.859256287859
9	970	13.8	101.18526518264
9	992	13.9	102.53585047046
9	1035	14	103.90704700085
9	1036	14.1	105.2982426661
9	1037	14.2	106.70773907198
9	1059	14.3	108.12236826837
9	1060	14.4	109.52907781322
9	1061	14.5	110.93834159399
9	1062	14.6	112.34782482781
9	1063	14.7	113.75737050279
9	1106	14.8	115.16584633931
9	1128	14.9	116.58018151899
9	1171	15	117.99771504841
9	1172	15.1	119.24697068164
9	1173	15.2	119.56056065987
9	1201	15.3	119.8759663955
9	1202	15.4	120.1904579392
9	1203	15.5	120.50450665227
9	1258	15.6	120.81903363917
9	1259	15.7	121.13290993833
9	1314	15.8	121.44886182388
9	1342	15.9	121.76496329941
9	1397	16	122.08019986349
9	1398	16.1	122.39552643741
9	1399	16.2	122.70152262206
9	1427	16.3	122.99774732997
9	1428	16.4	123.28494925016
9	1429	16.5	123.56237969362
9	1484	16.6	123.95729556006
9	1485	16.7	124.46755386323
9	1540	16.8	125.18512592752
9	1568	16.9	126.25625359925
9	1623	17	127.29330313763
9	1624	17.1	128.29153198697
9	1625	17.2	129.24673832132
9	1653	17.3	130.15224956807
9	1654	17.4	130.99923627117
9	1655	17.5	131.80288952648
9	1710	17.6	132.56320933401
9	1711	17.7	133.28019569376
9	1766	17.8	133.95384860573
9	1794	17.9	134.58416806992
9	1849	18	135.17451939364
9	1850	18.1	135.80507215927
9	1851	18.2	136.46142005279
9	1879	18.3	137.1435630742
9	1880	18.4	137.8515012235
9	1881	18.5	138.5852345007
9	1936	18.6	139.31641132631
9	1937	18.7	140.05439136019
9	1992	18.8	140.80657962834
9	2020	18.9	141.5814828425
9	2075	19	142.28388062848
9	2076	19.1	142.90555344865
9	2077	19.2	143.5350070617
9	2105	19.3	144.16486925019
9	2106	19.4	144.65052247508
9	2107	19.5	145.02858034126
9	2162	19.6	145.40900879283
9	2163	19.7	145.79261668887
9	2218	19.8	146.17487501195
9	2246	19.9	146.46497542234
9	2301	20	146.74755178983
9	2302	20.1	147.03557665422
9	2336	20.2	147.32997464656
9	2370	20.3	147.62970132406
9	2371	20.4	147.93605777673
9	2372	20.5	148.2481333965
9	2439	20.6	148.56499758796
9	2440	20.7	148.88698257326
9	2507	20.8	149.21664408892
9	2541	20.9	149.55114653162
9	2641	21	149.89262157555
9	2642	21.1	150.23874193848
9	2676	21.2	150.59212172182
9	2710	21.3	150.95291159526
9	2711	21.4	151.31919580899
9	2712	21.5	151.69382716486
9	2779	21.6	152.07592835427
9	2780	21.7	152.46447666211
9	2847	21.8	152.8580117936
9	2881	21.9	153.25657463168
9	2981	22	153.6634882625
9	2982	22.1	154.07815192976
9	3016	22.2	154.49885492953
9	3050	22.3	154.92748569003
9	3051	22.4	155.36109582251
9	3052	22.5	155.80272748409
9	3119	22.6	156.24962657416
9	3120	22.7	156.70127241931
9	3187	22.8	157.16051945069
9	3221	22.9	157.62630586242
9	3321	23	158.09647240927
9	3322	23.1	158.56612357111
9	3356	23.2	159.03307524806
9	3390	23.3	159.50183366783
9	3391	23.4	159.96800550035
9	3392	23.5	160.43649031192
9	3459	23.6	160.90373625801
9	3460	23.7	161.37392746547
9	3527	23.8	161.84287070689
9	3561	23.9	162.30936586112
9	3661	24	162.77633454267
9	3662	24.1	163.24255700725
9	3696	24.2	163.70986054109
9	3730	24.3	164.17612799094
9	3731	24.4	164.64469511537
9	3732	24.5	165.11465291048
9	3799	24.6	165.58226291349
9	3800	24.7	166.05205078576
9	3867	24.8	166.52044845018
9	3901	24.9	166.98692010807
9	4001	25	167.45465988144
9	4002	25.1	167.92317971817
9	4042	25.2	168.39042273598
9	4082	25.3	168.85660972167
9	4083	25.4	169.32633236595
9	4084	25.5	169.79340009213
9	4163	25.6	170.25971699929
9	4203	25.7	170.72664547773
[...]
408	223080	299.3	190.83900974524
408	223120	299.4	191.14174237261
408	223160	299.5	191.44505876823
408	223239	299.6	191.74862066299
408	223396	299.7	192.0516815683
408	223397	299.8	192.28345302062
408	223476	299.9	192.49472878039
408	223477	300	192.71233851948
409	215348	290.5	610.41
409	215538	290.6	610.41
409	215791	290.7	610.41
409	215981	290.8	610.41975
409	216171	290.9	610.43925
409	216235	291	610.4685
409	216362	291.1	610.5075
409	216363	291.2	610.55625
409	216427	291.3	610.61475
409	216554	291.4	610.683
409	216618	291.5	610.761
409	216808	291.6	610.84875
409	217061	291.7	610.94625
409	217251	291.8	611.15636050747
409	217441	291.9	611.38446532676
409	217505	292	611.63252465737
409	217632	292.1	611.95577431815
409	217633	292.2	612.28036955001
409	217691	292.3	612.58560877595
409	217806	292.4	612.82627236091
409	217864	292.5	613.07104754615
409	218036	292.6	613.31762094097
409	218265	292.7	613.55388231702
409	218380	292.8	613.62664383651
409	218552	292.9	613.70271013187
409	218610	293	613.78163799106
409	218668	293.1	613.86383135705
409	218669	293.2	613.94865833054
409	218721	293.3	614.03717642394
409	218773	293.4	614.12829880281
409	218825	293.5	614.22362712989
409	218979	293.6	614.32263140177
409	219184	293.7	614.42484292063
409	219287	293.8	614.52989981491
409	219390	293.9	614.64001777626
409	219442	294	614.75527950362
409	219494	294.1	614.87336596477
409	219495	294.2	614.99529756193
409	219547	294.3	615.12128826071
409	219599	294.4	615.25179157903
409	219651	294.5	615.38576056855
409	219805	294.6	615.52408106208
409	220010	294.7	615.66751812974
409	220113	294.8	615.81580911725
409	220216	294.9	615.968205608
409	220268	295	616.12352977194
409	220320	295.1	616.28164309523
409	220321	295.2	616.44295598206
409	220373	295.3	616.60721178174
409	220425	295.4	616.77433485746
409	220477	295.5	616.9456440042
409	220631	295.6	617.11985679687
409	220836	295.7	617.29687758027
409	220939	295.8	617.47688028234
409	221042	295.9	617.66022194728
409	221043	296	617.84780934159
409	221146	296.1	618.03802933056
409	221147	296.2	618.2332208864
409	221199	296.3	618.43133066859
409	221251	296.4	618.63415375862
409	221303	296.5	618.84038154028
409	221457	296.6	619.05162626911
409	221638	296.7	619.26617270547
409	221639	296.8	619.4796658358
409	221730	296.9	619.68419586399
409	221731	297	619.87976279002
409	221822	297.1	620.0663666139
409	221823	297.2	620.24400733563
409	221869	297.3	620.41268495521
409	221915	297.4	620.57239947263
409	221961	297.5	620.7231508879
409	222097	297.6	620.86493920102
409	222278	297.7	620.99776441198
409	222279	297.8	621.1216265208
409	222370	297.9	621.2069214045
409	222371	298	621.24435807236
409	222462	298.1	621.28323918466
409	222463	298.2	621.32356474141
409	222509	298.3	621.3653347426
409	222555	298.4	621.35423412754
409	222601	298.5	621.10290688773
409	222737	298.6	620.85250901544
409	222918	298.7	620.60239237169
409	222919	298.8	620.34488282841
409	222998	298.9	619.79969514873
409	222999	299	619.25062695682
409	223039	299.1	618.70182020292
409	223040	299.2	618.16040264735
409	223080	299.3	617.48275013604
409	223120	299.4	616.78096086351
409	223160	299.5	616.07781831001
409	223239	299.6	615.37410664489
409	223396	299.7	614.67155636439
409	223397	299.8	613.93664732319
409	223476	299.9	613.17478544033
409	223477	300	612.3900831833
410	215538	290.6	0
410	215791	290.7	0
410	215981	290.8	0.26
410	216171	290.9	0.52
410	216235	291	0.78
410	216362	291.1	1.04
410	216363	291.2	1.3
410	216427	291.3	1.56
410	216554	291.4	1.82
410	216618	291.5	2.08
410	216808	291.6	2.34
410	217061	291.7	2.6
410	217251	291.8	2.7354475340876
410	217441	291.9	2.913145983594
410	217505	292	3.1679867392173
410	217632	292.1	3.3772866727319
410	217633	292.2	3.3482481161485
410	217691	292.3	3.3881847837594
410	217806	292.4	3.361360255529
410	217864	292.5	3.4187871812241
410	218036	292.6	3.4439028636649
410	218265	292.7	3.4397657209103
410	218380	292.8	3.6401462479475
410	218552	292.9	3.8076122989881
410	218610	293	3.9508521604215
410	218668	293.1	4.114311992417
410	218669	293.2	4.2461411591017
410	218721	293.3	4.4309056917954
410	218773	293.4	4.5612671006917
410	218825	293.5	4.7718021353221
410	218979	293.6	4.9558070554029
410	219184	293.7	5.1163506053694
410	219287	293.8	5.2587801315266
410	219390	293.9	5.5121194211793
410	219442	294	5.7695983299314
410	219494	294.1	5.910994609462
410	219495	294.2	6.1034686483376
410	219547	294.3	6.3066530578214
410	219599	294.4	6.5325389848723
410	219651	294.5	6.7098652931516
410	219805	294.6	6.9444954466078
410	220010	294.7	7.2013773077893
410	220113	294.8	7.4450723921325
410	220216	294.9	7.651192597051
410	220268	295	7.7981788656631
410	220320	295.1	7.9382109304847
410	220321	295.2	8.0988476804461
410	220373	295.3	8.2465990676594
410	220425	295.4	8.3905530471707
410	220477	295.5	8.6007182246566
410	220631	295.6	8.746498184542
410	220836	295.7	8.8874756945021
410	220939	295.8	9.0371854027341
410	221042	295.9	9.2048208109828
410	221043	296	9.41798118579
410	221146	296.1	9.5501527911544
410	221147	296.2	9.7997544415671
410	221199	296.3	9.9462664230125
410	221251	296.4	10.182901964414
410	221303	296.5	10.353837339795
410	221457	296.6	10.60571734624
410	221638	296.7	10.771482319406
410	221639	296.8	10.718600214369
410	221730	296.9	10.268600214369
410	221731	297	9.8186002143689
410	221822	297.1	9.3686002143689
410	221823	297.2	8.9186002143689
410	221869	297.3	8.4686002143689
410	221915	297.4	8.0186002143689
410	221961	297.5	7.5686002143689
410	222097	297.6	7.1186002143689
410	222278	297.7	6.6686002143689
410	222279	297.8	6.2186002143689
410	222370	297.9	6.4786002143689
410	222371	298	6.7386002143689
410	222462	298.1	6.9986002143689
410	222463	298.2	7.2586002143689
410	222509	298.3	7.5186002143689
410	222555	298.4	7.6494612417059
410	222601	298.5	7.7415711369706
410	222737	298.6	7.7129440579043
410	222918	298.7	7.7042814440621
410	222919	298.8	7.6792123821858
410	222998	298.9	7.6766036699681
410	222999	299	7.7312438526741
410	223039	299.1	7.7275626323806
410	223040	299.2	7.6235178252255
410	223080	299.3	7.7003606888178
410	223120	299.4	7.6429397300623
410	223160	299.5	7.6576778363172
410	223239	299.6	7.6638758305545
410	223396	299.7	7.6512275997215
410	223397	299.8	7.7222655318367
410	223476	299.9	7.909776235981
410	223477	300	8.1469087832133
411	215791	290.7	0
411	215981	290.8	2.6
411	216171	290.9	2.6
411	216235	291	2.6
411	216362	291.1	2.6
411	216363	291.2	2.6
411	216427	291.3	2.6
411	216554	291.4	2.6
411	216618	291.5	2.6
411	216808	291.6	2.6
411	217061	291.7	2.6
411	217251	291.8	1.3544753408758
411	217441	291.9	1.7769844950642
411	217505	292	2.548407556233
411	217632	292.1	2.0929993351456
411	217633	292.2	-0.29038556583356
411	217691	292.3	0.39936667610891
411	217806	292.4	-0.26824528230354
411	217864	292.5	0.57426925695036
411	218036	292.6	0.2511568244081
411	218265	292.7	-0.041371427546255
411	218380	292.8	2.003805270372
411	218552	292.9	1.6746605104068
411	218610	293	1.4323986143339
411	218668	293.1	1.6345983199542
411	218669	293.2	1.3182916668477
411	218721	293.3	1.8476453269366
411	218773	293.4	1.3036140889628
411	218825	293.5	2.1053503463045
411	218979	293.6	1.8400492008077
411	219184	293.7	1.6054354996653
411	219287	293.8	1.4242952615721
411	219390	293.9	2.5333928965265
411	219442	294	2.5747890875209
411	219494	294.1	1.413962795306
411	219495	294.2	1.9247403887566
411	219547	294.3	2.031844094838
411	219599	294.4	2.2588592705084
411	219651	294.5	1.773263082793
411	219805	294.6	2.3463015345624
411	220010	294.7	2.5688186118146
411	220113	294.8	2.436950843432
411	220216	294.9	2.0612020491855
411	220268	295	1.4698626861209
411	220320	295.1	1.4003206482157
411	220321	295.2	1.6063674996141
411	220373	295.3	1.4775138721336
411	220425	295.4	1.4395397951128
411	220477	295.5	2.1016517748591
411	220631	295.6	1.457799598854
411	220836	295.7	1.4097750996007
411	220939	295.8	1.4970970823197
411	221042	295.9	1.6763540824875
411	221043	296	2.1316037480719
411	221146	296.1	1.3217160536442
411	221147	296.2	2.4960165041266
411	221199	296.3	1.4651198144536
411	221251	296.4	2.3663554140134
411	221303	296.5	1.7093537538079
411	221457	296.6	2.5188000644557
411	221638	296.7	1.6576497316593
411	221639	296.8	-0.52882105037177
411	221730	296.9	-4.5
411	221731	297	-4.5
411	221822	297.1	-4.5
411	221823	297.2	-4.5
411	221869	297.3	-4.5
411	221915	297.4	-4.5
411	221961	297.5	-4.5
411	222097	297.6	-4.5
411	222278	297.7	-4.5
411	222279	297.8	-4.5
411	222370	297.9	2.6
411	222371	298	2.6
411	222462	298.1	2.6
411	222463	298.2	2.6
411	222509	298.3	2.6
411	222555	298.4	1.30861027337
411	222601	298.5	0.9210989526473
411	222737	298.6	-0.28627079066355
411	222918	298.7	-0.08662613842171
411	222919	298.8	-0.25069061876274
411	222998	298.9	-0.026087122177705
411	222999	299	0.54640182706061
411	223039	299.1	-0.036812202935099
411	223040	299.2	-1.0404480715515
411	223080	299.3	0.7684286359232
411	223120	299.4	-0.57420958755538
411	223160	299.5	0.14738106254954
411	223239	299.6	0.061979942372998
411	223396	299.7	-0.12648230833001
411	223397	299.8	0.71037932115141
411	223476	299.9	1.8751070414437
411	223477	300	2.3713254723232
412	215791	290.7	0.973
412	215981	290.8	1.2854600236512
412	216171	290.9	1.4609297892096
412	216235	291	1.6364190385823
412	216362	291.1	1.8119375136765
412	216363	291.2	1.9874949563994
412	216427	291.3	2.1631011086581
412	216554	291.4	2.3387657123598
412	216618	291.5	2.5144985094118
412	216808	291.6	2.6903092417211
412	217061	291.7	2.8662076511949
412	217251	291.8	2.1367770341678
412	217441	291.9	2.5003782434246
412	217505	292	3.2114312514847
412	217632	292.1	2.9800256482532
412	217633	292.2	0.973
412	217691	292.3	1.6031430433792
412	217806	292.4	0.973
412	217864	292.5	1.7517700289887
412	218036	292.6	1.4883624985642
412	218265	292.7	1.2453978187125
412	218380	292.8	3.0479452519278
412	218552	292.9	2.8355051229839
412	218610	293	2.6701521261695
412	218668	293.1	2.9356928035308
412	218669	293.2	2.6709403270166
412	218721	293.3	3.3047879499922
412	218773	293.4	2.7718199103649
412	218825	293.5	3.7713910879672
412	218979	293.6	3.5579738471449
412	219184	293.7	3.3487521273729
412	219287	293.8	3.1822216512559
412	219390	293.9	4.7567877717661
412	219442	294	4.9862429189562
412	219494	294.1	3.4284856032294
412	219495	294.2	4.2566051892552
412	219547	294.3	4.5256119847575
412	219599	294.4	5.0070989260108
412	219651	294.5	4.3290948584047
412	219805	294.6	5.4027657998694
412	220010	294.7	5.9501611909772
412	220113	294.8	5.8798020072668
412	220216	294.9	5.3211982154933
412	220268	295	4.2923947961511
412	220320	295.1	4.2181155905821
412	220321	295.2	4.6851052801647
412	220373	295.3	4.4960799489503
412	220425	295.4	4.480256023931
412	220477	295.5	5.9399187587344
412	220631	295.6	4.6666480444724
412	220836	295.7	4.6231529331116
412	220939	295.8	4.8747563010621
412	221042	295.9	5.344847907272
412	221043	296	6.4796653572251
412	221146	296.1	4.6932079998353
412	221147	296.2	7.5646239476488
412	221199	296.3	5.1926713612765
412	221251	296.4	7.5059882421797
412	221303	296.5	5.9773125366011
412	221457	296.6	8.1698199078386
412	221638	296.7	6.0482057736353
412	221639	296.8	0.973
412	221730	296.9	0.973
412	221731	297	0.973
412	221822	297.1	0.973
412	221823	297.2	0.973
412	221869	297.3	0.973
412	221915	297.4	0.973
412	221961	297.5	0.973
412	222097	297.6	0.973
412	222278	297.7	0.973
412	222279	297.8	0.973
412	222370	297.9	5.5071383720436
412	222371	298	5.6857441019631
412	222462	298.1	5.8646023196432
412	222463	298.2	6.0437227669909
412	222509	298.3	6.2231151859136
412	222555	298.4	3.9328084514878
412	222601	298.5	3.2448256555335
412	222737	298.6	0.973
412	222918	298.7	1.3630574251172
412	222919	298.8	0.973
412	222998	298.9	1.4738473200065
412	222999	299	2.5437168275719
412	223039	299.1	1.456849211687
412	223040	299.2	0.973
412	223080	299.3	2.949685149877
412	223120	299.4	0.973
412	223160	299.5	1.792880591356
412	223239	299.6	1.6357651721773
412	223396	299.7	1.2872463639622
412	223397	299.8	2.8471258068202
412	223476	299.9	5.1117174813446
412	223477	300	6.2088310212234
415	220320	295.1	280.19356158957
415	220321	295.2	280.19526934278
415	220373	295.3	280.19862377797
415	220425	295.4	280.20360126664
415	220477	295.5	280.21026433349
415	220631	295.6	280.21835714878
415	220836	295.7	280.22790260716
415	220939	295.8	280.23900328342
415	221042	295.9	280.25137172448
415	221043	296	280.26483407742
415	221146	296.1	280.27939626241
415	221147	296.2	280.29546588045
415	221199	296.3	280.31308925324
415	221251	296.4	280.33198146748
415	221303	296.5	280.35249704636
415	221457	296.6	280.37471371196
415	221638	296.7	280.39852630983
415	221639	296.8	280.42356906106
415	221730	296.9	280.44994194362
415	221731	297	280.4775031738
415	221822	297.1	280.50598310403
415	221823	297.2	280.53556542757
415	221869	297.3	280.5668463529
415	221915	297.4	280.5997921464
415	221961	297.5	280.63430674545
415	222097	297.6	280.67027089937
415	222278	297.7	280.70729445252
415	222279	297.8	280.7454658852
415	222370	297.9	280.78470596173
415	222371	298	280.82553800121
415	222462	298.1	280.86778398639
415	222463	298.2	280.91177923656
415	222509	298.3	280.95680416725
415	222555	298.4	281.00334627912
415	222601	298.5	281.02864430163
415	222737	298.6	281.05078067581
415	222918	298.7	281.07368274717
415	222919	298.8	281.09720527145
415	222998	298.9	281.12115797876
415	222999	299	281.14577032655
415	223039	299.1	281.1708893181
415	223040	299.2	281.19670989284
415	223080	299.3	281.22323191111
415	223120	299.4	281.25041594393
415	223160	299.5	281.27828025852
415	223239	299.6	281.3067840566
415	223396	299.7	281.33599119629
415	223397	299.8	281.36593135728
415	223476	299.9	281.39661445515
415	223477	300	281.4278166165
416	220320	295.1	30.198265610992
416	220321	295.2	30.223558024905
416	220373	295.3	30.273238366783
416	220425	295.4	30.346956690414
416	220477	295.5	30.445639008091
416	220631	295.6	30.565496393194
416	220836	295.7	30.706867923348
416	220939	295.8	30.871272766582
416	221042	295.9	31.054453643569
416	221043	296	31.253835732758
416	221146	296.1	31.469506713942
416	221147	296.2	31.707503298324
416	221199	296.3	31.968511526502
416	221251	296.4	32.248311733954
416	221303	296.5	32.552154531505
416	221457	296.6	32.881191009857
416	221638	296.7	33.233863795553
416	221639	296.8	33.604755576752
416	221730	296.9	33.995347061596
416	221731	297	34.403538384378
416	221822	297.1	34.825335971698
416	221823	297.2	35.263460384211
416	221869	297.3	35.726741674824
416	221915	297.4	36.214680237149
416	221961	297.5	36.725853350674
416	222097	297.6	37.258494871769
416	222278	297.7	37.806826460593
416	222279	297.8	38.372158541146
416	222370	297.9	38.953317605663
416	222371	298	39.558054190287
416	222462	298.1	40.183731798504
416	222463	298.2	40.835316624188
416	222509	298.3	41.502151373622
416	222555	298.4	42.191456099319
416	222601	298.5	42.907333542719
416	222737	298.6	43.640293487802
416	222918	298.7	44.398606517245
416	222919	298.8	45.177463432482
416	222998	298.9	45.970564185755
416	222999	299	46.785506367968
416	223039	299.1	47.617224088035
416	223040	299.2	48.472172007285
416	223080	299.3	49.350345501203
416	223120	299.4	50.250439032383
416	223160	299.5	51.173057448907
416	223239	299.6	52.116849873994
416	223396	299.7	53.083930721573
416	223397	299.8	54.075282718877
416	223476	299.9	55.091234181744
416	223477	300	56.124372413016
417	220321	295.2	0.25350742437318
417	220373	295.3	0.49794913030726
417	220425	295.4	0.73888330378796
417	220477	295.5	0.98909895557111
417	220631	295.6	1.2013379622053
417	220836	295.7	1.4169755647786
417	220939	295.8	1.6478398821744
417	221042	295.9	1.8360332263684
417	221043	296	1.9984189753461
417	221146	296.1	2.1616835443192
417	221147	296.2	2.3854544419363
417	221199	296.3	2.6161015667684
417	221251	296.4	2.804454733898
417	221303	296.5	3.0454350971022
417	221457	296.6	3.2979529134055
417	221638	296.7	3.5348610795044
417	221639	296.8	3.7174711949622
417	221730	296.9	3.9149225394229
417	221731	297	4.0913268004112
417	221822	297.1	4.2277032289525
417	221823	297.2	4.3913480046844
417	221869	297.3	4.6434969452523
417	221915	297.4	4.8906383001745
417	221961	297.5	5.1235196396649
417	222097	297.6	5.3386988126474
417	222278	297.7	5.4959613290742
417	222279	297.8	5.6663583060364
417	222370	297.9	5.824993142333
417	222371	298	6.0613120803224
417	222462	298.1	6.271205251183
417	222463	298.2	6.5308748894894
417	222509	298.3	6.6837258156656
417	222555	298.4	6.908943773416
417	222601	298.5	7.1640420883928
417	222737	298.6	7.3331554939073
417	222918	298.7	7.5868093410378
417	222919	298.8	7.7923478701023
417	222998	298.9	7.934855356143
417	222999	299	8.1533756118627
417	223039	299.1	8.3212123789323
417	223040	299.2	8.5536270748602
417	223080	299.3	8.7859955032087
417	223120	299.4	9.0053022235107
417	223160	299.5	9.2306603591341
417	223239	299.6	9.4425031730008
417	223396	299.7	9.6755003845073
417	223397	299.8	9.9183296361366
417	223476	299.9	10.164443639031
417	223477	300	10.336394706758
418	220373	295.3	2.4444170593408
418	220425	295.4	2.409341734807
418	220477	295.5	2.5021565178315
418	220631	295.6	2.1223900663423
418	220836	295.7	2.1563760257325
418	220939	295.8	2.3086431739583
418	221042	295.9	1.8819334419401
418	221043	296	1.6238574897768
418	221146	296.1	1.6326456897306
418	221147	296.2	2.2377089761717
418	221199	296.3	2.3064712483203
418	221251	296.4	1.8835316712968
418	221303	296.5	2.4098036320414
418	221457	296.6	2.525178163033
418	221638	296.7	2.3690816609887
418	221639	296.8	1.8261011545779
418	221730	296.9	1.9745134446071
418	221731	297	1.7640426098835
418	221822	297.1	1.3637642854126
418	221823	297.2	1.6364477573195
418	221869	297.3	2.5214894056786
418	221915	297.4	2.471413549222
418	221961	297.5	2.3288133949041
418	222097	297.6	2.1517917298246
418	222278	297.7	1.5726251642685
418	222279	297.8	1.7039697696222
418	222370	297.9	1.5863483629655
418	222371	298	2.3631893798942
418	222462	298.1	2.098931708606
418	222463	298.2	2.5966963830637
418	222509	298.3	1.5285092617618
418	222555	298.4	2.2521795775043
418	222601	298.5	2.5509831497679
418	222737	298.6	1.6911340551451
418	222918	298.7	2.5365384713048
418	222919	298.8	2.0553852906451
418	222998	298.9	1.425074860407
418	222999	299	2.1852025571978
418	223039	299.1	1.6783676706953
418	223040	299.2	2.3241469592787
418	223080	299.3	2.3236842834856
418	223120	299.4	2.1930672030197
418	223160	299.5	2.2535813562339
418	223239	299.6	2.1184281386668
418	223396	299.7	2.3299721150659
418	223397	299.8	2.428292516293
418	223476	299.9	2.4611400289461
418	223477	300	1.7195106772706
419	220373	295.3	1.4273765509578
419	220425	295.4	1.5747145893131
419	220477	295.5	1.7542497002607
419	220631	295.6	1.782592278057
419	220836	295.7	1.9150009670727
419	220939	295.8	2.1067352509843
419	221042	295.9	2.0318674548819
419	221043	296	1.9892215877759
419	221146	296.1	2.0657652193898
419	221147	296.2	2.5127749180679
419	221199	296.3	2.6920398375428
419	221251	296.4	2.5203538061686
419	221303	296.5	3.0281961039121
419	221457	296.6	3.2794352958346
419	221638	296.7	3.3028262447693
419	221639	296.8	2.9300999814045
419	221730	296.9	3.1673450217559
419	221731	297	3.0530553579655
419	221822	297.1	2.710432250197
419	221823	297.2	3.0615384944889
419	221869	297.3	4.1650069111523
419	221915	297.4	4.2696468321809
419	221961	297.5	4.2451278594504
419	222097	297.6	4.1501474642808
419	222278	297.7	3.4734448659994
419	222279	297.8	3.7270800004177
419	222370	297.9	3.6362087795989
419	222371	298	4.875060339695
419	222462	298.1	4.607549123433
419	222463	298.2	5.5378286974
419	222509	298.3	3.9220940839248
419	222555	298.4	5.2237567810823
419	222601	298.5	5.8939191064805
419	222737	298.6	4.4889053696969
419	222918	298.7	6.1541893498687
419	222919	298.8	5.3895353507638
419	222998	298.9	4.2641001946721
419	222999	299	5.8472330126416
419	223039	299.1	4.9304613241643
419	223040	299.2	6.3714923320521
419	223080	299.3	6.5167169636826
419	223120	299.4	6.3714442208693
419	223160	299.5	6.6412356017679
419	223239	299.6	6.4640670203785
419	223396	299.7	7.0934393224971
419	223397	299.8	7.4829841081727
419	223476	299.9	7.7262290361761
419	223477	300	5.9940698149277

