version 3
run MediumLat_HighBW-0-20250505-19:23:47-13028
attr configname MediumLat_HighBW
attr datetime 20250505-19:23:47
attr datetimef 20250505-192347
attr experiment MediumLat_HighBW
attr inifile omnetpp.ini
attr iterationvars ""
attr iterationvarsd ""
attr iterationvarsf ""
attr measurement ""
attr network BangaloreScenario
attr processid 13028
attr repetition 0
attr replication #0
attr resultdir results
attr runnumber 0
attr seedset 0
config image-path ../../../../../../../OneDrive/Desktop/veins/images
config description "Medium Latency (50ms), High Bandwidth (100Mbps)"
config **.serverChannel.delay 50ms
config **.serverChannel.datarate 100Mbps
config network BangaloreScenario
config sim-time-limit 300s
config repeat 5
config *.manager.updateInterval 0.1s
config *.manager.host "\"localhost\""
config *.manager.port 9999
config *.manager.moduleType "\"org.car2x.veins.nodes.Car\""
config *.manager.moduleName "\"node\""
config *.manager.autoShutdown true
config *.manager.launchConfig "xmldoc(\"bangalore.launchd.xml\")"
config *.**.scalar-recording true
config *.**.vector-recording true
config *.**.BangaloreScenario.worldUtility.playgroundSizeX 3000m
config *.**.BangaloreScenario.worldUtility.playgroundSizeY 3000m
config *.**.BangaloreScenario.worldUtility.playgroundSizeZ 50m
config *.**.BangaloreScenario.playgroundSizeX 3000m
config *.**.BangaloreScenario.playgroundSizeY 3000m
config *.**.BangaloreScenario.playgroundSizeZ 50m
config *.node[*].veinsmobility.setHostState false
config *.node[*].veinsmobility.setHostSpeed false
config *.node[*].mobilityType "\"org.car2x.veins.modules.mobility.traci.TraCIMobility\""
config *.node[*].mobility.updateInterval 0.1s
config *.node[*].mobility.setHostState false
config *.node[*].applType "\"bangalore_v2v.MyBangaloreApp.MyBangaloreApp\""
config *.node[*].nicType "\"org.car2x.veins.modules.nic.Nic80211p\""
config *.node[*].nic.phy80211p.usePropagationDelay true
config *.node[*].nic.phy80211p.thermalNoise -110dBm
config *.node[*].nic.phy80211p.sensitivity -95dBm
config *.node[*].nic.phy80211p.maxTXPower 20mW
config *.node[*].veinsmobility.x 0
config *.node[*].veinsmobility.y 0
config *.node[*].veinsmobility.z 0
config *.node[*].appl.broadcastInterval 1s
config *.node[*].appl.periodicLoggingInterval 0.1s
config *.node[*].appl.safetyDistanceThreshold 10m
config *.**.nic.mac1609_4.useServiceChannel false
config *.**.nic.mac1609_4.txPower 20mW
config *.**.nic.phy80211p.minPowerLevel -110dBm
config *.**.nic.phy80211p.useNoiseFloor true
config *.**.nic.phy80211p.noiseFloor -98dBm
config BangaloreScenario.numCars 0
config *.**.nic.phy80211p.decider "xmldoc(\"config.xml\")"
config *.**.nic.phy80211p.analogueModels "xmldoc(\"config.xml\")"
config *.connectionManager.sendDirect false
config *.connectionManager.maxInterfDist 10000m
config **.serverChannel.delay 5ms
config **.serverChannel.datarate 100Mbps

vector 0 BangaloreScenario.node[0].nic.phy80211p RadioState ETV
vector 1 BangaloreScenario.node[0].nic.phy80211p RadioChannel ETV
vector 2 BangaloreScenario.manager posx ETV
vector 3 BangaloreScenario.manager posy ETV
vector 4 BangaloreScenario.manager speed ETV
vector 5 BangaloreScenario.manager acceleration ETV
vector 6 BangaloreScenario.manager co2emission ETV
vector 7 BangaloreScenario.node[1].nic.phy80211p RadioState ETV
vector 8 BangaloreScenario.node[1].nic.phy80211p RadioChannel ETV
vector 9 BangaloreScenario.manager posx ETV
vector 10 BangaloreScenario.manager posy ETV
vector 11 BangaloreScenario.manager speed ETV
vector 12 BangaloreScenario.manager acceleration ETV
vector 13 BangaloreScenario.manager co2emission ETV
vector 14 BangaloreScenario.node[2].nic.phy80211p RadioState ETV
vector 15 BangaloreScenario.node[2].nic.phy80211p RadioChannel ETV
vector 16 BangaloreScenario.manager posx ETV
vector 17 BangaloreScenario.manager posy ETV
vector 18 BangaloreScenario.manager speed ETV
vector 19 BangaloreScenario.manager acceleration ETV
vector 20 BangaloreScenario.manager co2emission ETV
vector 21 BangaloreScenario.node[3].nic.phy80211p RadioState ETV
vector 22 BangaloreScenario.node[3].nic.phy80211p RadioChannel ETV
vector 23 BangaloreScenario.manager posx ETV
vector 24 BangaloreScenario.manager posy ETV
vector 25 BangaloreScenario.manager speed ETV
vector 26 BangaloreScenario.manager acceleration ETV
vector 27 BangaloreScenario.manager co2emission ETV
vector 28 BangaloreScenario.node[4].nic.phy80211p RadioState ETV
vector 29 BangaloreScenario.node[4].nic.phy80211p RadioChannel ETV
vector 30 BangaloreScenario.manager posx ETV
vector 31 BangaloreScenario.manager posy ETV
vector 32 BangaloreScenario.manager speed ETV
vector 33 BangaloreScenario.manager acceleration ETV
vector 34 BangaloreScenario.manager co2emission ETV
vector 35 BangaloreScenario.node[5].nic.phy80211p RadioState ETV
vector 36 BangaloreScenario.node[5].nic.phy80211p RadioChannel ETV
vector 37 BangaloreScenario.manager posx ETV
vector 38 BangaloreScenario.manager posy ETV
vector 39 BangaloreScenario.manager speed ETV
vector 40 BangaloreScenario.manager acceleration ETV
vector 41 BangaloreScenario.manager co2emission ETV
vector 42 BangaloreScenario.node[6].nic.phy80211p RadioState ETV
vector 43 BangaloreScenario.node[6].nic.phy80211p RadioChannel ETV
vector 44 BangaloreScenario.manager posx ETV
vector 45 BangaloreScenario.manager posy ETV
vector 46 BangaloreScenario.manager speed ETV
vector 47 BangaloreScenario.manager acceleration ETV
vector 48 BangaloreScenario.manager co2emission ETV
6	6	0.3	1.4377461184884
6	8	0.4	1.5713018311443
6	10	0.5	1.6833521092362
6	12	0.6	1.8750484231547
6	14	0.7	1.9732100655802
6	25	0.8	2.2244785304485
6	27	0.9	1.9460095433919
6	38	1	2.2730283353162
6	40	1.1	2.0405059892214
6	42	1.2	2.4045482697933
6	44	1.3	2.4861865308214
6	46	1.4	3.009258305697
6	48	1.5	2.4797292234537
6	50	1.6	3.159601830708
6	52	1.7	3.0716627500608
6	63	1.8	3.5019387345174
6	65	1.9	3.7376625251955
6	76	2	3.1109005055077
6	78	2.1	3.786388420013
6	80	2.2	2.968647477167
6	82	2.3	3.8646360496075
6	84	2.4	3.4506441859261
6	86	2.5	3.0785113908387
6	88	2.6	3.0236835156519
6	90	2.7	3.7371347858139
6	101	2.8	4.0772764086243
6	103	2.9	3.5412883921899
6	114	3	3.9816392011819
6	116	3.1	3.673919382989
6	118	3.2	4.8298196875552
6	120	3.3	5.0523880800782
6	122	3.4	3.5979272021817
6	124	3.5	4.5417113613139
6	126	3.6	4.4016744035838
6	128	3.7	4.5771382028875
6	139	3.8	5.1232375327014
6	141	3.9	6.3121489794699
6	152	4	5.7623846985954
6	154	4.1	4.986258536861
6	156	4.2	5.416333965192
6	158	4.3	5.3965237129347
6	160	4.4	6.7298389182546
6	162	4.5	4.5808347744665
6	164	4.6	6.6498775235175
6	166	4.7	6.9223345607948
6	177	4.8	6.1736293086549
6	179	4.9	7.5880928428865
6	190	5	7.1754979122774
6	192	5.1	7.2737002662501
6	195	5.2	6.9754982293089
6	198	5.3	8.366448129085
6	201	5.4	5.7547146457985
6	204	5.5	5.3053598137749
6	207	5.6	8.5423424838767
6	225	5.7	5.9661403261428
6	243	5.8	5.6855164977887
6	246	5.9	6.4518334915608
6	279	6	8.4555631499581
6	282	6.1	8.843181643411
6	285	6.2	6.8620847562016
6	288	6.3	6.621271267416
6	291	6.4	9.4343107911107
6	294	6.5	8.3922747394123
6	297	6.6	7.6893265082914
6	315	6.7	6.1982045723665
6	333	6.8	8.6888667928856
6	336	6.9	9.5853915124391
6	369	7	7.0556210704824
6	372	7.1	8.3554052538305
6	375	7.2	9.8658105840556
6	378	7.3	6.7762048170142
6	381	7.4	9.1376523954808
6	384	7.5	10.314764178006
6	387	7.6	8.916567055146
6	405	7.7	7.5323466841229
6	423	7.8	10.597888428354
6	426	7.9	10.087050689679
6	459	8	11.602235398909
6	462	8.1	8.2300131389163
6	465	8.2	8.7140798513584
6	468	8.3	9.6182572102752
6	471	8.4	11.084449214434
6	474	8.5	10.719669713529
6	477	8.6	8.5895402034476
6	495	8.7	12.414602011795
6	513	8.8	10.843127177804
6	516	8.9	13.381996567927
6	549	9	13.155425144265
6	552	9.1	12.841456171738
6	555	9.2	8.9057811896635
6	558	9.3	9.3316591089851
6	561	9.4	9.9061194987294
6	564	9.5	9.7110982160636
6	567	9.6	13.802736643836
6	585	9.7	8.7781686905191
6	603	9.8	9.5883100322276
6	606	9.9	13.293836339544
6	639	10	14.703441303858
6	642	10.1	11.046569702151
6	646	10.2	14.277828624915
6	650	10.3	11.746358446294
6	675	10.4	14.660414586313
6	679	10.5	15.60473723058
6	683	10.6	10.0327839457
6	708	10.7	11.462109974822
6	754	10.8	11.911341660126
6	758	10.9	13.961346144542
6	804	11	14.968000381997
6	808	11.1	15.430405888399
6	812	11.2	15.328784207156
6	816	11.3	13.975265004862
6	841	11.4	10.407851480126
6	845	11.5	17.350812543162
6	849	11.6	12.818308787542
6	874	11.7	11.162259904601
6	920	11.8	15.046210465652
6	924	11.9	14.130399997062
6	970	12	17.868216541173
6	974	12.1	12.755582967779
6	978	12.2	15.299011493531
6	982	12.3	13.310874027014
6	1007	12.4	17.39393893023
6	1011	12.5	12.668066298658
6	1015	12.6	11.746062964869
6	1040	12.7	1.0531734798304
6	1086	12.8	3.8107086409832
6	1090	12.9	3.9201657746092
6	1136	13	2.8974997556029
6	1140	13.1	5.7340722669763
6	1144	13.2	3.6542815080776
6	1148	13.3	1.5844808839634
6	1173	13.4	8.0063006985679
6	1177	13.5	4.5968479688657
6	1181	13.6	1.9833392338324
6	1206	13.7	0.973
6	1252	13.8	6.3911163719501
6	1256	13.9	3.3583945413392
6	1302	14	2.7488474427896
6	1306	14.1	0.973
6	1310	14.2	0.973
6	1314	14.3	0.973
6	1339	14.4	0.973
6	1343	14.5	0.973
6	1347	14.6	0.973
6	1372	14.7	0.973
6	1418	14.8	0.973
6	1422	14.9	0.973
6	1468	15	0.973
6	1472	15.1	0.973
6	1504	15.2	0.973
6	1509	15.3	0.973
6	1541	15.4	0.973
6	1546	15.5	0.973
6	1551	15.6	0.973
6	1583	15.7	0.973
6	1642	15.8	0.973
6	1647	15.9	0.973
6	1733	16	0.973
6	1738	16.1	0.973
6	1770	16.2	0.973
6	1775	16.3	0.973
6	1807	16.4	0.973
6	1812	16.5	0.973
6	1817	16.6	0.973
6	1849	16.7	0.973
6	1908	16.8	0.973
6	1913	16.9	0.973
6	1999	17	0.973
6	2004	17.1	0.973
6	2036	17.2	0.973
6	2041	17.3	0.973
6	2073	17.4	0.973
6	2078	17.5	0.973
6	2083	17.6	0.973
6	2115	17.7	0.973
6	2174	17.8	0.973
6	2179	17.9	0.973
6	2265	18	0.973
6	2270	18.1	2.7280955998888
6	2302	18.2	0.973
6	2307	18.3	1.4623246930071
6	2339	18.4	1.4659443723185
6	2344	18.5	2.5187984016841
6	2349	18.6	2.0512526130775
6	2381	18.7	0.973
6	2440	18.8	2.001587403388
6	2445	18.9	1.4888832862215
6	2531	19	1.6664636697276
6	2536	19.1	1.753607793835
6	2568	19.2	1.3706527632109
6	2573	19.3	4.1196200059658
6	2605	19.4	4.3338216512253
6	2610	19.5	5.6812472709781
6	2615	19.6	5.6574025690465
6	2647	19.7	6.5056457934288
6	2706	19.8	4.2541602353754
6	2711	19.9	4.867375410832
6	2797	20	5.7000263962787
6	2802	20.1	5.9138127499343
6	2841	20.2	6.3749308468679
6	2847	20.3	5.8786947457887
6	2886	20.4	6.623517698976
6	2892	20.5	5.5223552269144
6	2898	20.6	5.1988019923552
6	2937	20.7	5.2816200927344
6	3009	20.8	5.402718604361
6	3048	20.9	5.6782651127774
6	3186	21	6.0764813329526
6	3192	21.1	5.9517234353037
6	3231	21.2	5.6577385192609
6	3237	21.3	7.8265120289838
6	3276	21.4	8.3730222523168
6	3282	21.5	6.3752010712305
6	3288	21.6	8.4876145410635
6	3327	21.7	9.0828071101121
6	3399	21.8	8.1139278801537
6	3438	21.9	8.0195665397936
6	3576	22	7.7757099301602
6	3582	22.1	7.4411325563608
6	3621	22.2	9.4373598838656
6	3627	22.3	9.1524771601076
6	3666	22.4	10.288642112632
6	3672	22.5	9.3343288259422
6	3678	22.6	10.439621923514
6	3717	22.7	7.8457805989565
6	3789	22.8	6.5304472729666
6	3828	22.9	7.2875060460226
6	3966	23	9.7949545363892
6	3972	23.1	7.6098216367268
6	4011	23.2	8.4405227094791
6	4017	23.3	11.663727302589
6	4056	23.4	10.597802489998
6	4062	23.5	2.0570649725327
6	4068	23.6	4.3831885412359
6	4107	23.7	0.973
6	4179	23.8	2.3569134088764
6	4218	23.9	1.3040925113461
6	4356	24	4.9083441358517
6	4362	24.1	1.7653739939523
6	4401	24.2	1.048979982779
6	4407	24.3	2.4765426633919
6	4446	24.4	3.5096698746274
6	4452	24.5	0.973
6	4458	24.6	3.9440230636191
6	4497	24.7	1.7448735610127
6	4569	24.8	1.1734025421906
6	4608	24.9	1.5708236031016
6	4746	25	4.9377395406372
6	4752	25.1	1.239899962906
6	4798	25.2	4.2484393297014
6	4805	25.3	1.6552068301519
6	4851	25.4	0.973
6	4897	25.5	2.9200706220083
6	4904	25.6	1.2338156788494
6	4950	25.7	3.9452756037878
6	5035	25.8	2.8439421767075
6	5120	25.9	0.973
6	5283	26	0.973
6	5290	26.1	0.973
6	5336	26.2	0.973
6	5343	26.3	0.973
6	5389	26.4	0.973
6	5435	26.5	0.973
6	5442	26.6	0.973
6	5488	26.7	0.973
6	5573	26.8	0.973
6	5658	26.9	0.973
6	5821	27	0.973
6	5828	27.1	0.973
6	5874	27.2	0.973
6	5881	27.3	0.973
6	5927	27.4	0.973
6	5973	27.5	0.973
6	5980	27.6	0.973
6	6026	27.7	0.973
6	6111	27.8	0.973
6	6196	27.9	0.973
6	6359	28	0.973
6	6366	28.1	1.8224414745293
6	6412	28.2	1.7462234617549
6	6419	28.3	0.973
6	6465	28.4	2.630877086207
6	6511	28.5	2.3095069712644
6	6518	28.6	0.973
6	6564	28.7	0.973
6	6649	28.8	1.7393241323756
6	6734	28.9	0.973
6	6897	29	3.1591081826741
6	6904	29.1	5.7636458900374
6	6950	29.2	6.1935562430231
6	6957	29.3	6.4881531741832
6	7003	29.4	4.9606389777787
6	7049	29.5	5.5844811212678
6	7056	29.6	6.4369105858839
6	7102	29.7	5.0876087474733
6	7187	29.8	4.5925745600053
6	7272	29.9	6.1176021573848
6	7435	30	7.1787895153014
6	7442	30.1	6.1741815827721
6	7488	30.2	7.0952728065781
6	7495	30.3	7.9270211846416
6	7541	30.4	5.2129593199549
6	7587	30.5	6.6240482684481
6	7595	30.6	5.5920687592747
6	7648	30.7	8.1761630292869
6	7746	30.8	5.5506219046117
6	7844	30.9	6.2329780832798
6	8032	31	7.0180410477325
6	8040	31.1	6.1470531201522
5	6	0.3	2.5227782611462
5	8	0.4	2.3913321875384
5	10	0.5	2.2647456793603
5	12	0.6	2.4276095240349
5	14	0.7	2.2916625780298
5	25	0.8	2.5344215164987
5	27	0.9	1.6664884685297
5	38	1	2.1295186728844
5	40	1.1	1.5344444137342
5	42	1.2	2.012904180415
5	44	1.3	1.9748638385907
5	46	1.4	2.536921401252
5	48	1.5	1.6644197624875
5	50	1.6	2.3876782166306
5	52	1.7	2.1250225800788
5	63	1.8	2.4492640680401
5	65	1.9	2.5255911291111
5	76	2	1.7843908121809
5	78	2.1	2.3157095496776
5	80	2.2	1.4869633356575
5	82	2.3	2.1880426084623
5	84	2.4	1.7548668551957
5	86	2.5	1.3966282241978
5	88	2.6	1.3120618151035
5	90	2.7	1.8089185756631
5	101	2.8	1.9885440276936
5	103	2.9	1.5419875764288
5	114	3	1.7962171741528
5	116	3.1	1.5348525960464
5	118	3.2	2.2325326326303
5	120	3.3	2.2870639229659
5	122	3.4	1.3311956858728
5	124	3.5	1.8596540211234
5	126	3.6	1.7250115999952
5	128	3.7	1.7771527426783
5	139	3.8	2.0273098416161
5	141	3.9	2.5933179031126
5	152	4	2.2234064544784
5	154	4.1	1.7693011381198
5	156	4.2	1.9373904149048
5	158	4.3	1.8783372915117
5	160	4.4	2.4538008356234
5	162	4.5	1.4006419032114
5	164	4.6	2.304958770494
5	166	4.7	2.3604877096135
5	177	4.8	1.9778820008971
5	179	4.9	2.520886587305
5	190	5	2.2844143953407
5	192	5.1	2.2665570510551
5	195	5.2	2.0956227248534
5	198	5.3	2.5779598564608
5	201	5.4	1.5354645496001
5	204	5.5	1.3423833534354
5	207	5.6	2.5030969839776
5	225	5.7	1.5239654132863
5	243	5.8	1.3999055969762
5	246	5.9	1.647696577711
5	279	6	2.3076350883115
5	282	6.1	2.3875655513257
5	285	6.2	1.6817170715891
5	288	6.3	1.5755061051575
5	291	6.4	2.4562649028376
5	294	6.5	2.0757247052388
5	297	6.6	1.8186946440488
5	315	6.7	1.3287125359057
5	333	6.8	2.0711696933256
5	336	6.9	2.301566456561
5	369	7	1.5121217192616
5	372	7.1	1.8713770024944
5	375	7.2	2.2749604509445
5	378	7.3	1.3570906199748
5	381	7.4	2.0049406133592
5	384	7.5	2.2969292026013
5	387	7.6	1.8753374915803
5	405	7.7	1.4730459484737
5	423	7.8	2.2724647385534
5	426	7.9	2.0992807862349
5	459	8	2.4566862861393
5	462	8.1	1.5519108337816
5	465	8.2	1.6553716436494
5	468	8.3	1.8606211043894
5	471	8.4	2.196903877589
5	474	8.5	2.0729262706358
5	477	8.6	1.5265198461712
5	495	8.7	2.4231671048328
5	513	8.8	2.0128335082904
5	516	8.9	2.5738025467843
5	549	9	2.4776193857426
5	552	9.1	2.3657124478836
5	555	9.2	1.4466357906349
5	558	9.3	1.5258882674621
5	561	9.4	1.6357196343364
5	564	9.5	1.5736574145034
5	567	9.6	2.4414880499011
5	585	9.7	1.3276523664827
5	603	9.8	1.4873702042503
5	606	9.9	2.2531004415592
5	639	10	2.5129802494543
5	642	10.1	1.7223074501613
5	646	10.2	2.360862417263
5	650	10.3	1.8162483868189
5	675	10.4	2.3761831316864
5	679	10.5	2.5273815787165
5	683	10.6	1.4010386305163
5	708	10.7	1.665538517409
5	754	10.8	1.7337677868549
5	758	10.9	2.1056890492793
5	804	11	2.2684262131574
5	808	11.1	2.3239350897493
5	812	11.2	2.2732888697647
5	816	11.3	1.9950189980446
5	841	11.4	1.3207524630008
5	845	11.5	2.5631387459813
5	849	11.6	1.7175660141045
5	874	11.7	1.4042712009279
5	920	11.8	2.0769173276611
5	924	11.9	1.8915326801362
5	970	12	2.516576019628
5	974	12.1	1.6053537485655
5	978	12.2	2.0229636409553
5	982	12.3	1.6628260320751
5	1007	12.4	2.3307808822487
5	1011	12.5	1.5147111537401
5	1015	12.6	1.3470683438015
5	1040	12.7	-0.44390028223862
5	1086	12.8	0.018935480481019
5	1090	12.9	0.037167247291663
5	1136	13	-0.13405159220564
5	1140	13.1	0.34055868706201
5	1144	13.2	-0.0081748536089776
5	1148	13.3	-0.35448810032101
5	1173	13.4	0.71925090015863
5	1177	13.5	0.1477090294706
5	1181	13.6	-0.28894324628638
5	1206	13.7	-0.77951108592096
5	1252	13.8	0.45135719773825
5	1256	13.9	-0.057240448310054
5	1302	14	-0.15904817315747
5	1306	14.1	-4.5
5	1310	14.2	-4.2245762070283
5	1314	14.3	-4.5
5	1339	14.4	-4.5
5	1343	14.5	-4.0518684870098
5	1347	14.6	-4.5
5	1372	14.7	-4.5
5	1418	14.8	-4.4882951494539
5	1422	14.9	-4.5
5	1468	15	-4.5
5	1472	15.1	-4.4426582447486
5	1504	15.2	-4.5
5	1509	15.3	-4.5
5	1541	15.4	-4.5
5	1546	15.5	-4.5
5	1551	15.6	-4.5
5	1583	15.7	-4.5
5	1642	15.8	-4.5
5	1647	15.9	-4.5
5	1733	16	-4.2701490547741
5	1738	16.1	-4.5
5	1770	16.2	-4.5
5	1775	16.3	-4.5
5	1807	16.4	-4.5
5	1812	16.5	-4.5
5	1817	16.6	-4.5
5	1849	16.7	-4.5
5	1908	16.8	-4.5
5	1913	16.9	-4.5
5	1999	17	-4.5
5	2004	17.1	-4.5
5	2036	17.2	-4.5
5	2041	17.3	-4.5
5	2073	17.4	-4.5
5	2078	17.5	-4.5
5	2083	17.6	-4.5
5	2115	17.7	-4.5
5	2174	17.8	-4.5
5	2179	17.9	-4.5
5	2265	18	-0.67439258818061
5	2270	18.1	0.70358912125229
5	2302	18.2	-1.0299019381404
5	2307	18.3	-0.015698678302583
5	2339	18.4	-0.013555045519018
5	2344	18.5	0.58956595039926
5	2349	18.6	0.31829167620745
5	2381	18.7	-0.91858300399036
5	2440	18.8	0.29464521592018
5	2445	18.9	-0.0012809858657459
5	2531	19	0.10071463112254
5	2536	19.1	0.15008963756263
5	2568	19.2	-0.07000160971657
5	2573	19.3	1.4771120201563
5	2605	19.4	1.5593118736753
5	2610	19.5	2.229622244928
5	2615	19.6	2.1495511898538
5	2647	19.7	2.5047667042818
5	2706	19.8	1.3388890681788
5	2711	19.9	1.6077916391194
5	2797	20	1.9626325945137
5	2802	20.1	2.0114652232034
5	2841	20.2	2.1667176323012
5	2847	20.3	1.8950140606379
5	2886	20.4	2.1697520451853
5	2892	20.5	1.6553734902991
5	2898	20.6	1.4890077127609
5	2937	20.7	1.4964233590756
5	3009	20.8	1.5188459897414
5	3048	20.9	1.6013400302036
5	3186	21	1.7274763863766
5	3192	21.1	1.6469131596619
5	3231	21.2	1.5060846358305
5	3237	21.3	2.2854176430963
5	3276	21.4	2.4302219065372
5	3282	21.5	1.6635986943962
5	3288	21.6	2.3746481880546
5	3327	21.7	2.5241095046513
5	3399	21.8	2.1413464629557
5	3438	21.9	2.0674303963082
5	3576	22	1.9485731412191
5	3582	22.1	1.8061260433169
5	3621	22.2	2.4053003768669
5	3627	22.3	2.267310655443
5	3666	22.4	2.5673678582767
5	3672	22.5	2.2286264948547
5	3678	22.6	2.5107559222262
5	3717	22.7	1.7101971354568
5	3789	22.8	1.306212358363
5	3828	22.9	1.5068043461302
5	3966	23	2.1915223166579
5	3972	23.1	1.548100555921
5	4011	23.2	1.7558296897449
5	4017	23.3	2.5999174537603
5	4056	23.4	2.267299042223
5	4062	23.5	-0.035479434223227
5	4068	23.6	0.58781431342942
5	4107	23.7	-0.4361758994637
5	4179	23.8	0.044728328241028
5	4218	23.9	-0.23848974648862
5	4356	24	0.72814325874205
5	4362	24.1	-0.11547482092865
5	4401	24.2	-0.30763909756205
5	4407	24.3	0.076440585684026
5	4446	24.4	0.35256813219748
5	4452	24.5	-0.44517058744095
5	4458	24.6	0.46904157320968
5	4497	24.7	-0.12103868168778
5	4569	24.8	-0.27421444407665
5	4608	24.9	-0.16692244964652
5	4746	25	0.73445446628611
5	4752	25.1	-0.25675560352392
5	4798	25.2	0.54769446519204
5	4805	25.3	-0.14606236943511
5	4851	25.4	-0.86272423253394
5	4897	25.5	0.19568019139115
5	4904	25.6	-0.25765838851221
5	4950	25.7	0.47021731033457
5	5035	25.8	0.17357502798548
5	5120	25.9	-0.40689521110616
5	5283	26	-1.6447176718811
5	5290	26.1	-3.6026541396277
5	5336	26.2	-4.4689518823521
5	5343	26.3	-4.5
5	5389	26.4	-4.5
5	5435	26.5	-4.5
5	5442	26.6	-4.5
5	5488	26.7	-4.5
5	5573	26.8	-4.5
5	5658	26.9	-4.5
5	5821	27	-4.4318598682527
5	5828	27.1	-4.5
5	5874	27.2	-4.5
5	5881	27.3	-4.5
5	5927	27.4	-4.5
5	5973	27.5	-4.5
5	5980	27.6	-4.5
5	6026	27.7	-4.5
5	6111	27.8	-4.5
5	6196	27.9	-0.65895577697087
5	6359	28	-0.53033512851689
5	6366	28.1	0.19334690487012
5	6412	28.2	0.14830420608632
5	6419	28.3	-0.27474563114811
5	6465	28.4	0.65538886762224
5	6511	28.5	0.46570608892944
5	6518	28.6	-0.18324560942128
5	6564	28.7	-0.2089500667993
5	6649	28.8	0.1409852320794
5	6734	28.9	-0.98321338626556
5	6897	29	0.95629259028938
5	6904	29.1	2.3656493975548
5	6950	29.2	2.5112010973738
5	6957	29.3	2.5746821876615
5	7003	29.4	1.7358635865385
5	7049	29.5	1.9978159122867
5	7056	29.6	2.3476496917428
5	7102	29.7	1.6575858970871
5	7187	29.8	1.3958321520127
5	7272	29.9	2.053735314752
5	7435	30	2.4632722997339
5	7442	30.1	1.9689447691198
5	7488	30.2	2.3065734611824
5	7495	30.3	2.5833849457791
5	7541	30.4	1.4347570260055
5	7587	30.5	1.9664169136435
5	7595	30.6	1.525964243128
5	7648	30.7	2.4793437642744
5	7746	30.8	1.4433793524047
5	7844	30.9	1.6721094863024
5	8032	31	1.9267319109989
5	8040	31.1	1.5789946682518
4	4	0.2	0.24714285032102
4	6	0.3	0.49942067643564
4	8	0.4	0.73855389518948
4	10	0.5	0.96502846312551
4	12	0.6	1.207789415529
4	14	0.7	1.436955673332
4	25	0.8	1.6903978249819
4	27	0.9	1.8570466718348
4	38	1	2.0699985391233
4	40	1.1	2.2234429804967
4	42	1.2	2.4247333985382
4	44	1.3	2.6222197823973
4	46	1.4	2.8759119225225
4	48	1.5	3.0423538987712
4	50	1.6	3.2811217204343
4	52	1.7	3.4936239784422
4	63	1.8	3.7385503852462
4	65	1.9	3.9911094981573
4	76	2	4.1695485793754
4	78	2.1	4.4011195343431
4	80	2.2	4.5498158679089
4	82	2.3	4.7686201287551
4	84	2.4	4.9441068142747
4	86	2.5	5.0837696366945
4	88	2.6	5.2149758182048
4	90	2.7	5.3958676757711
4	101	2.8	5.5947220785405
4	103	2.9	5.7489208361834
4	114	3	5.9285425535986
4	116	3.1	6.0820278132033
4	118	3.2	6.3052810764663
4	120	3.3	6.5339874687629
4	122	3.4	6.6671070373502
4	124	3.5	6.8530724394625
4	126	3.6	7.025573599462
4	128	3.7	7.2032888737299
4	139	3.8	7.4060198578915
4	141	3.9	7.6653516482027
4	152	4	7.8876922936506
4	154	4.1	8.0646224074626
4	156	4.2	8.258361448953
4	158	4.3	8.4461951781042
4	160	4.4	8.6915752616665
4	162	4.5	8.8316394519877
4	164	4.6	9.0621353290371
4	166	4.7	9.2981840999984
4	177	4.8	9.4959723000881
4	179	4.9	9.7480609588186
4	190	5	9.9765023983527
4	192	5.1	10.203158103458
4	195	5.2	10.412720375944
4	198	5.3	10.67051636159
4	201	5.4	10.82406281655
4	204	5.5	10.958301151893
4	207	5.6	11.208610850291
4	225	5.7	11.36100739162
4	243	5.8	11.500997951317
4	246	5.9	11.665767609088
4	279	6	11.896531117919
4	282	6.1	12.135287673052
4	285	6.2	12.303459380211
4	288	6.3	12.461009990727
4	291	6.4	12.70663648101
4	294	6.5	12.914208951534
4	297	6.6	13.096078415939
4	315	6.7	13.22894966953
4	333	6.8	13.436066638862
4	336	6.9	13.666223284518
4	369	7	13.817435456445
4	372	7.1	14.004573156694
4	375	7.2	14.232069201788
4	378	7.3	14.367778263786
4	381	7.4	14.568272325122
4	384	7.5	14.797965245382
4	387	7.6	14.98549899454
4	405	7.7	15.132803589387
4	423	7.8	15.360050063243
4	426	7.9	15.569978141866
4	459	8	15.81564677048
4	462	8.1	15.970837853858
4	465	8.2	16.136375018223
4	468	8.3	16.322437128662
4	471	8.4	16.542127516421
4	474	8.5	16.749420143485
4	477	8.6	16.902072128102
4	495	8.7	17.144388838585
4	513	8.8	17.345672189414
4	516	8.9	17.603052444093
4	549	9	17.850814382667
4	552	9.1	18.087385627455
4	555	9.2	18.232049206519
4	558	9.3	18.384638033265
4	561	9.4	18.548209996699
4	564	9.5	18.705575738149
4	567	9.6	18.949724543139
4	585	9.7	19.082489779787
4	603	9.8	19.231226800212
4	606	9.9	19.456536844368
4	639	10	19.707834869314
4	642	10.1	19.88006561433
4	646	10.2	20.116151856056
4	650	10.3	20.297776694738
4	675	10.4	20.535395007907
4	679	10.5	20.788133165778
4	683	10.6	20.92823702883
4	708	10.7	21.094790880571
4	754	10.8	21.268167659256
4	758	10.9	21.478736564184
4	804	11	21.7055791855
4	808	11.1	21.937972694475
4	812	11.2	22.165301581451
4	816	11.3	22.364803481256
4	841	11.4	22.496878727556
4	845	11.5	22.753192602154
4	849	11.6	22.924949203564
4	874	11.7	23.065376323657
4	920	11.8	23.273068056423
4	924	11.9	23.462221324437
4	970	12	23.7138789264
4	974	12.1	23.874414301256
4	978	12.2	24.076710665352
4	982	12.3	24.242993268559
4	1007	12.4	24.476071356784
4	1011	12.5	24.627542472158
4	1015	12.6	24.762249306538
4	1040	12.7	24.717859278315
4	1086	12.8	24.719752826363
4	1090	12.9	24.723469551092
4	1136	13	24.710064391871
4	1140	13.1	24.744120260577
4	1144	13.2	24.743302775217
4	1148	13.3	24.707853965184
4	1173	13.4	24.7797790552
4	1177	13.5	24.794549958147
4	1181	13.6	24.765655633519
4	1206	13.7	24.687704524927
4	1252	13.8	24.7328402447
4	1256	13.9	24.727116199869
4	1302	14	24.711211382554
4	1306	14.1	24.261211382554
4	1310	14.2	23.838753761851
4	1314	14.3	23.388753761851
4	1339	14.4	22.938753761851
4	1343	14.5	22.53356691315
4	1347	14.6	22.08356691315
4	1372	14.7	21.63356691315
4	1418	14.8	21.184737398205
4	1422	14.9	20.734737398205
4	1468	15	20.284737398205
4	1472	15.1	19.84047157373
4	1504	15.2	19.39047157373
4	1509	15.3	18.94047157373
4	1541	15.4	18.49047157373
4	1546	15.5	18.04047157373
4	1551	15.6	17.59047157373
4	1583	15.7	17.14047157373
4	1642	15.8	16.69047157373
4	1647	15.9	16.24047157373
4	1733	16	15.813456668252
4	1738	16.1	15.363456668252
4	1770	16.2	14.913456668252
4	1775	16.3	14.463456668252
4	1807	16.4	14.013456668252
4	1812	16.5	13.563456668252
4	1817	16.6	13.113456668252
4	1849	16.7	12.663456668252
4	1908	16.8	12.213456668252
4	1913	16.9	11.763456668252
4	1999	17	11.313456668252
4	2004	17.1	10.863456668252
4	2036	17.2	10.413456668252
4	2041	17.3	9.9634566682522
4	2073	17.4	9.5134566682522
4	2078	17.5	9.0634566682522
4	2083	17.6	8.6134566682522
4	2115	17.7	8.1634566682522
4	2174	17.8	7.7134566682522
4	2179	17.9	7.2634566682522
4	2265	18	7.1960174094342
4	2270	18.1	7.2663763215594
4	2302	18.2	7.1633861277454
4	2307	18.3	7.1618162599151
4	2339	18.4	7.1604607553632
4	2344	18.5	7.2194173504031
4	2349	18.6	7.2512465180239
4	2381	18.7	7.1593882176248
4	2440	18.8	7.1888527392169
4	2445	18.9	7.1887246406303
4	2531	19	7.1987961037425
4	2536	19.1	7.2138050674988
4	2568	19.2	7.2068049065272
4	2573	19.3	7.3545161085428
4	2605	19.4	7.5104472959103
4	2610	19.5	7.7334095204031
4	2615	19.6	7.9483646393885
4	2647	19.7	8.1988413098167
4	2706	19.8	8.3327302166346
4	2711	19.9	8.4935093805465
4	2797	20	8.6897726399979
4	2802	20.1	8.8909191623182
4	2841	20.2	9.1075909255483
4	2847	20.3	9.2970923316121
4	2886	20.4	9.5140675361306
4	2892	20.5	9.6796048851606
4	2898	20.6	9.8285056564367
4	2937	20.7	9.9781479923442
4	3009	20.8	10.130032591318
4	3048	20.9	10.290166594339
4	3186	21	10.462914232976
4	3192	21.1	10.627605548943
4	3231	21.2	10.778214012526
4	3237	21.3	11.006755776835
4	3276	21.4	11.249777967489
4	3282	21.5	11.416137836929
4	3288	21.6	11.653602655734
4	3327	21.7	11.906013606199
4	3399	21.8	12.120148252495
4	3438	21.9	12.326891292126
4	3576	22	12.521748606247
4	3582	22.1	12.702361210579
4	3621	22.2	12.942891248266
4	3627	22.3	13.16962231381
4	3666	22.4	13.426359099638
4	3672	22.5	13.649221749123
4	3678	22.6	13.900297341346
4	3717	22.7	14.071317054892
4	3789	22.8	14.201938290728
4	3828	22.9	14.352618725341
4	3966	23	14.571770957007
4	3972	23.1	14.726581012599
4	4011	23.2	14.902163981573
4	4017	23.3	15.162155726949
4	4056	23.4	15.388885631172
4	4062	23.5	15.385337687749
4	4068	23.6	15.444119119092
4	4107	23.7	15.400501529146
4	4179	23.8	15.40497436197
4	4218	23.9	15.381125387321
4	4356	24	15.453939713195
4	4362	24.1	15.442392231102
4	4401	24.2	15.411628321346
4	4407	24.3	15.419272379915
4	4446	24.4	15.454529193134
4	4452	24.5	15.41001213439
4	4458	24.6	15.456916291711
4	4497	24.7	15.444812423542
4	4569	24.8	15.417390979135
4	4608	24.9	15.40069873417
4	4746	25	15.474144180799
4	4752	25.1	15.448468620446
4	4798	25.2	15.503238066966
4	4805	25.3	15.488631830022
4	4851	25.4	15.402359406769
4	4897	25.5	15.421927425908
4	4904	25.6	15.396161587057
4	4950	25.7	15.44318331809
4	5035	25.8	15.460540820889
4	5120	25.9	15.419851299778
4	5283	26	15.25537953259
4	5290	26.1	14.895114118627
4	5336	26.2	14.448218930392
4	5343	26.3	13.998218930392
4	5389	26.4	13.548218930392
4	5435	26.5	13.098218930392
4	5442	26.6	12.648218930392
4	5488	26.7	12.198218930392
4	5573	26.8	11.748218930392
4	5658	26.9	11.298218930392
4	5821	27	10.855032943567
4	5828	27.1	10.405032943567
4	5874	27.2	9.9550329435666
4	5881	27.3	9.5050329435666
4	5927	27.4	9.0550329435666
4	5973	27.5	8.6050329435666
4	5980	27.6	8.1550329435666
4	6026	27.7	7.7050329435666
4	6111	27.8	7.2550329435666
4	6196	27.9	7.1891373658695
4	6359	28	7.1361038530178
4	6366	28.1	7.1554385435048
4	6412	28.2	7.1702689641135
4	6419	28.3	7.1427944009987
4	6465	28.4	7.2083332877609
4	6511	28.5	7.2549038966538
4	6518	28.6	7.2365793357117
4	6564	28.7	7.2156843290318
4	6649	28.8	7.2297828522397
4	6734	28.9	7.1314615136132
4	6897	29	7.2270907726421
4	6904	29.1	7.4636557123976
4	6950	29.2	7.714775822135
4	6957	29.3	7.9722440409011
4	7003	29.4	8.145830399555
4	7049	29.5	8.3456119907836
4	7056	29.6	8.5803769599579
4	7102	29.7	8.7461355496666
4	7187	29.8	8.8857187648679
4	7272	29.9	9.0910922963431
4	7435	30	9.3374195263165
4	7442	30.1	9.5343140032285
4	7488	30.2	9.7649713493467
4	7495	30.3	10.023309843925
4	7541	30.4	10.166785546525
4	7587	30.5	10.36342723789
4	7595	30.6	10.516023662202
4	7648	30.7	10.76395803863
4	7746	30.8	10.90829597387
4	7844	30.9	11.0755069225
4	8032	31	11.2681801136
4	8040	31.1	11.426079580426
3	2	0.1	396.74225784379
3	4	0.2	396.76678923266
3	6	0.3	396.81636170789
3	8	0.4	396.8896705363
3	10	0.5	396.98545922075
3	12	0.6	397.10534434707
3	14	0.7	397.24797650645
3	25	0.8	397.41576532309
3	27	0.9	397.60009569723
3	38	1	397.8055636647
3	40	1.1	398.02626252094
3	42	1.2	398.26694145557
3	44	1.3	398.5272228803
3	46	1.4	398.81268577614
3	48	1.5	399.11466969551
3	50	1.6	399.44035369876
3	52	1.7	399.78713066715
3	63	1.8	400.15821902033
3	65	1.9	400.55437638038
3	76	2	400.96824559608
3	78	2.1	401.40510053499
3	80	2.2	401.85671506568
3	82	2.3	402.33004809805
3	84	2.4	402.8207999314
3	86	2.5	403.3254146906
3	88	2.6	403.84305296984
3	90	2.7	404.3786465672
3	101	2.8	404.93397844418
3	103	2.9	405.50461608332
3	114	3	406.09308296654
3	116	3.1	406.69678479014
3	118	3.2	407.32264672321
3	120	3.3	407.97121004311
3	122	3.4	408.63298680576
3	124	3.5	409.31322248637
3	126	3.6	410.01058062482
3	128	3.7	410.72557877388
3	139	3.8	411.46069999185
3	141	3.9	412.22156247237
3	152	4	413.00449447596
3	154	4.1	413.80498855516
3	156	4.2	414.62471316343
3	158	4.3	415.46308213972
3	160	4.4	416.32580753272
3	162	4.5	417.20243569134
3	164	4.6	418.10194286096
3	166	4.7	419.02488022161
3	177	4.8	419.96745003064
3	179	4.9	420.93504214928
3	190	5	421.92530935555
3	192	5.1	422.93807439752
3	195	5.2	423.9716405818
3	198	5.3	425.02944175288
3	201	5.4	426.10242667442
3	204	5.5	427.18871858726
3	207	5.6	428.29982359816
3	225	5.7	429.42603561589
3	243	5.8	430.56612484057
3	246	5.9	431.72254761406
3	279	6	432.90184587983
3	282	6.1	434.1048119853
3	285	6.2	435.32444888334
3	288	6.3	436.55970370898
3	291	6.4	437.81930738818
3	294	6.5	439.09948764151
3	297	6.6	440.3976965405
3	315	6.7	441.70907691252
3	333	6.8	443.04098870504
3	336	6.9	444.39571583174
3	369	7	445.76543255922
3	372	7.1	447.15370017041
3	375	7.2	448.56451937154
3	378	7.3	449.9887913565
3	381	7.4	451.43293823579
3	384	7.5	452.89985448035
3	387	7.6	454.38536086879
3	405	7.7	455.8854695015
3	423	7.8	457.40894653291
3	426	7.9	458.95339270081
3	459	8	460.52220768726
3	462	8.1	462.1073395044
3	465	8.2	463.71127756956
3	468	8.3	465.33371000542
3	471	8.4	466.97797942605
3	474	8.5	468.64285350756
3	477	8.6	470.32290102974
3	495	8.7	472.02703456847
3	513	8.8	473.75117545258
3	516	8.9	475.5008996531
3	549	9	477.2752511199
3	552	9.1	479.07311751023
3	555	9.2	480.88536330244
3	558	9.3	482.71277625748
3	561	9.4	484.55644808715
3	564	9.5	486.41576189978
3	567	9.6	488.29934383715
3	585	9.7	490.19612249414
3	603	9.8	492.09260038983
3	606	9.9	494.00507096601
3	639	10	495.94224275611
3	642	10.1	497.89611815907
3	646	10.2	499.87265086097
3	650	10.3	501.86702929379
3	675	10.4	503.88482307474
3	679	10.5	505.9276366491
3	683	10.6	507.98421798561
3	708	10.7	510.05716627853
3	754	10.8	512.14715200497
3	758	10.9	514.2578299703
3	804	11	516.39079936422
3	808	11.1	518.54660566277
3	812	11.2	520.7247511744
3	816	11.3	522.92250138963
3	841	11.4	525.13323040886
3	845	11.5	527.36914694532
3	849	11.6	529.62194170331
3	874	11.7	531.88853598938
3	920	11.8	534.17553853199
3	924	11.9	536.48112789725
3	970	12	538.8114471925
3	974	12.1	541.15754200397
3	978	12.2	543.52351610731
3	982	12.3	545.90583049644
3	1007	12.4	548.31104904089
3	1011	12.5	550.73115237344
3	1015	12.6	553.16449309901
3	1040	12.7	555.59347169809
3	1086	12.8	558.02263637267
3	1090	12.9	560.45216628295
3	1136	13	562.88037889287
3	1140	13.1	565.31193811041
3	1144	13.2	567.74335131056
3	1148	13.3	570.17127865063
3	1173	13.4	572.60627373897
3	1177	13.5	575.04272029612
3	1181	13.6	577.47632754068
3	1206	13.7	579.89701491365
3	1252	13.8	582.31692999495
3	1256	13.9	584.72788229729
3	1302	14	587.12462619504
3	1306	14.1	589.47010614584
3	1310	14.2	591.76622456823
3	1314	14.3	594.01440093798
3	1339	14.4	596.21856534648
3	1343	14.5	598.38379571175
3	1347	14.6	600.50578597801
3	1372	14.7	602.58453614525
3	1418	14.8	604.62015868436
3	1422	14.9	606.61254112445
3	1468	15	608.56168346554
3	1472	15.1	610.46813669943
3	1504	15.2	612.3309393705
3	1509	15.3	614.15001382789
3	1541	15.4	615.92586953529
3	1546	15.5	617.65850649268
3	1551	15.6	619.34792470008
3	1583	15.7	620.99412415747
3	1642	15.8	622.59710486486
3	1647	15.9	624.15686682226
3	1733	16	625.67571395798
3	1738	16.1	627.15165750562
3	1770	16.2	628.58437024845
3	1775	16.3	629.97385218646
3	1807	16.4	631.32010331967
3	1812	16.5	632.62312364807
3	1817	16.6	633.88291317166
3	1849	16.7	635.09947189043
3	1908	16.8	636.2727998044
3	1913	16.9	637.40289691356
3	1999	17	638.4897632179
3	2004	17.1	639.53339871744
3	2036	17.2	640.53380341216
3	2041	17.3	641.49097730208
3	2073	17.4	642.40492038718
3	2078	17.5	643.27563266748
3	2083	17.6	644.10311414296
3	2115	17.7	644.88736481363
3	2174	17.8	645.6283846795
3	2179	17.9	646.31497318626
3	2265	18	646.97204846074
3	2270	18.1	647.6355482752
3	2302	18.2	648.28964395595
3	2307	18.3	648.79078861691
3	2339	18.4	649.27909260063
3	2344	18.5	649.74012145449
3	2349	18.6	649.93363606764
3	2381	18.7	650.12469925076
3	2440	18.8	650.23318619794
3	2445	18.9	650.14221827293
3	2531	19	650.0511229011
3	2536	19.1	649.95983760208
3	2568	19.2	649.77931827268
3	2573	19.3	649.58407712306
3	2605	19.4	649.38469645102
3	2610	19.5	649.17939677624
3	2615	19.6	648.96839066423
3	2647	19.7	648.75073512045
3	2706	19.8	648.5295252131
3	2711	19.9	648.30404708356
3	2797	20	648.07335873166
3	2802	20.1	647.83733052085
3	2841	20.2	647.59555030087
3	2847	20.3	647.34873936618
3	2886	20.4	647.09616836682
3	2892	20.5	646.83920282922
3	2898	20.6	646.57828440643
3	2937	20.7	646.31339341206
3	3009	20.8	646.0444703205
3	3048	20.9	645.77129613392
3	3186	21	645.49353599674
3	3192	21.1	645.21140378104
3	3231	21.2	644.92527334586
3	3237	21.3	644.63307578728
3	3276	21.4	644.33442669183
3	3282	21.5	644.03136122258
3	3288	21.6	643.72199174862
3	3327	21.7	643.40592149335
3	3399	21.8	643.08416658202
3	3438	21.9	642.75692324043
3	3576	22	642.42450700025
3	3582	22.1	642.08729601736
3	3621	22.2	641.74369965705
3	3627	22.3	641.39408424216
3	3666	22.4	641.03765320752
3	3672	22.5	640.67530581357
3	3678	22.6	640.3062930882
3	3717	22.7	639.93274028365
3	3789	22.8	639.55571986276
3	3828	22.9	639.17469931176
3	3966	23	638.78786090232
3	3972	23.1	638.39691273327
3	4011	23.2	638.00130334379
3	4017	23.3	637.5987919248
3	4056	23.4	637.19026148206
3	4062	23.5	636.78182522696
3	4068	23.6	636.37182849472
3	4107	23.7	635.96298968345
3	4179	23.8	635.5540321314
3	4218	23.9	635.1457077007
3	4356	24	634.73545026007
3	4362	24.1	634.32549937172
3	4401	24.2	633.91636517627
3	4407	24.3	633.50702805316
3	4446	24.4	633.09675496354
3	4452	24.5	632.68766367319
3	4458	24.6	632.277327213
3	4497	24.7	631.86731207553
3	4569	24.8	631.45802489817
3	4608	24.9	631.04918085168
3	4746	25	630.63838704082
3	4752	25.1	630.22827484189
3	4798	25.2	629.81670867243
3	4805	25.3	629.40553025636
3	4851	25.4	628.9966421238
3	4897	25.5	628.58723451689
3	4904	25.6	628.17851091854
3	4950	25.7	627.76853902912
3	5035	25.8	627.35810634816
3	5120	25.9	626.9487538564
3	5283	26	626.54376761476
3	5290	26.1	626.14834537877
3	5336	26.2	625.7647869186
3	5343	26.3	625.39317465801
3	5389	26.4	625.03350859702
3	5435	26.5	624.68578873562
3	5442	26.6	624.35001507381
3	5488	26.7	624.02618761159
3	5573	26.8	623.71430634896
3	5658	26.9	623.41437128592
3	5821	27	623.12620153011
3	5828	27.1	622.8499779739
3	5874	27.2	622.58570061728
3	5881	27.3	622.33336946025
3	5927	27.4	622.0929845028
3	5973	27.5	621.86454574495
3	5980	27.6	621.6480531867
3	6026	27.7	621.44350682803
3	6111	27.8	621.1855499972
3	6196	27.9	620.89807625588
3	6359	28	620.61272317822
3	6366	28.1	620.27514955871
3	6412	28.2	619.75577648477
3	6419	28.3	619.23839351028
3	6465	28.4	618.6490123162
3	6511	28.5	617.95004658954
3	6518	28.6	617.25284632251
3	6564	28.7	616.54605861847
3	6649	28.8	615.82891803293
3	6734	28.9	615.12153019154
3	6897	29	614.40712897015
3	6904	29.1	613.68823697822
3	6950	29.2	612.94515734382
3	6957	29.3	612.17727862331
3	7003	29.4	611.39268023513
3	7049	29.5	610.58883908019
3	7056	29.6	609.76238559387
3	7102	29.7	608.91996640289
3	7187	29.8	608.06410269363
3	7272	29.9	607.18845760742
3	7435	30	606.28908652421
3	7442	30.1	605.37075075826
3	7488	30.2	604.43019830313
3	7495	30.3	603.4647629378
3	7541	30.4	602.48550813362
3	7587	30.5	601.48731299476
3	7595	30.6	600.47441991809
3	7648	30.7	599.43764604566
3	7746	30.8	598.38696968499
3	7844	30.9	597.32018772988
3	8032	31	596.23484768213
3	8040	31.1	595.13429891272
2	2	0.1	353.61974811072
2	4	0.2	353.61674240837
2	6	0.3	353.61066855312
2	8	0.4	353.60168640706
2	10	0.5	353.58994992221
2	12	0.6	353.57526102678
2	14	0.7	353.55778505676
2	25	0.8	353.53722677353
2	27	0.9	353.51464174007
2	38	1	353.48946682821
2	40	1.1	353.46242575548
2	42	1.2	353.43293662859
2	44	1.3	353.40104571145
2	46	1.4	353.36606944079
2	48	1.5	353.32906893582
2	50	1.6	353.28916458394
2	52	1.7	353.24667582172
2	63	1.8	353.2012083131
2	65	1.9	353.15266923062
2	76	2	353.10196000741
2	78	2.1	353.04843446415
2	80	2.2	352.99310050557
2	82	2.3	352.93510549294
2	84	2.4	352.87497624603
2	86	2.5	352.81314844756
2	88	2.6	352.74972494553
2	90	2.7	352.68410147258
2	101	2.8	352.61605957181
2	103	2.9	352.54614233633
2	114	3	352.47404057712
2	116	3.1	352.40007216061
2	118	3.2	352.32338858218
2	120	3.3	352.24392352195
2	122	3.4	352.16283948791
2	124	3.5	352.07949377952
2	126	3.6	351.99405014622
2	128	3.7	351.90644517498
2	139	3.8	351.81637462971
2	141	3.9	351.72315014262
2	152	4	351.62722159267
2	154	4.1	351.52914125376
2	156	4.2	351.42870469903
2	158	4.3	351.32598374773
2	160	4.4	351.2202785325
2	162	4.5	351.11286988435
2	164	4.6	351.00265799105
2	166	4.7	350.88957531938
2	177	4.8	350.77408718684
2	179	4.9	350.65553320201
2	190	5	350.53420095767
2	192	5.1	350.41011217159
2	195	5.2	350.2834747307
2	198	5.3	350.14310444457
2	201	5.4	350.00041850203
2	204	5.5	349.85596299073
2	207	5.6	349.70820782422
2	225	5.7	349.55844372221
2	243	5.8	349.40683422394
2	246	5.9	349.25305268415
2	279	6	349.0962291527
2	282	6.1	348.93625826293
2	285	6.2	348.77407048484
2	288	6.3	348.6098058288
2	291	6.4	348.44230325296
2	294	6.5	348.27206439647
2	297	6.6	348.09942808384
2	315	6.7	347.92504022372
2	333	6.8	347.7479220875
2	336	6.9	347.56776995947
2	369	7	347.38562450863
2	372	7.1	347.20101215423
2	375	7.2	347.01340088083
2	378	7.3	346.82400065113
2	381	7.4	346.63195745043
2	384	7.5	346.43688637088
2	387	7.6	346.23934316693
2	405	7.7	346.039858151
2	423	7.8	345.84382846156
2	426	7.9	345.6462506635
2	459	8	345.44555541298
2	462	8.1	345.25063733898
2	465	8.2	345.07364726716
2	468	8.3	344.89461639335
2	471	8.4	344.71317586945
2	474	8.5	344.52946167895
2	477	8.6	344.34407314179
2	495	8.7	344.15602678017
2	513	8.8	343.96577266405
2	516	8.9	343.77269550064
2	549	9	343.57690078739
2	552	9.1	343.37851126821
2	555	9.2	343.17853502232
2	558	9.3	342.9768851225
2	561	9.4	342.77344110142
2	564	9.5	342.56827103134
2	567	9.6	342.36042304169
2	585	9.7	342.151118831
2	603	9.8	341.83864558912
2	606	9.9	341.48060315248
2	639	10	341.11793628767
2	642	10.1	340.7509012124
2	646	10.2	340.37660764427
2	650	10.3	339.99893465201
2	675	10.4	339.61719971117
2	679	10.5	339.23175013091
2	683	10.6	338.84370277169
2	708	10.7	338.45256720287
2	754	10.8	338.05821691505
2	758	10.9	337.65996229896
2	804	11	337.25750161048
2	808	11.1	336.8507319261
2	812	11.2	336.43974715307
2	816	11.3	336.02506325406
2	841	11.4	335.60793044115
2	845	11.5	335.18604510551
2	849	11.6	334.76097509189
2	874	11.7	334.33330130553
2	920	11.8	333.90176992666
2	924	11.9	333.46672632793
2	970	12	333.02701641789
2	974	12.1	332.5843298124
2	978	12.2	332.1378921666
2	982	12.3	331.68837125851
2	1007	12.4	331.23452854607
2	1011	12.5	330.77787721042
2	1015	12.6	330.31872809994
2	1040	12.7	329.86040208278
2	1086	12.8	329.40204095488
2	1090	12.9	328.94361091035
2	1136	13	328.48542942833
2	1140	13.1	328.0266164721
2	1144	13.2	327.56747070868
2	1148	13.3	327.10896968908
2	1173	13.4	326.64913396324
2	1177	13.5	326.18902413531
2	1181	13.6	325.7294504963
2	1206	13.7	325.25059701727
2	1252	13.8	324.74738612649
2	1256	13.9	324.20475013822
2	1302	14	323.60940657546
2	1306	14.1	322.99528134946
2	1310	14.2	322.35963274665
2	1314	14.3	321.71379756507
2	1339	14.4	321.07673613633
2	1343	14.5	320.45092766909
2	1347	14.6	319.8376167266
2	1372	14.7	319.23680330887
2	1418	14.8	318.64845490885
2	1422	14.9	318.07260403358
2	1468	15	317.50925068307
2	1472	15.1	316.95823560619
2	1504	15.2	316.4202712879
2	1509	15.3	315.89546238805
2	1541	15.4	315.38312223819
2	1546	15.5	314.88325083834
2	1551	15.6	314.39584818848
2	1583	15.7	313.92091428863
2	1642	15.8	313.45844913877
2	1647	15.9	313.00845273892
2	1733	16	312.56996432896
2	1738	16.1	312.14288581566
2	1770	16.2	311.72831655305
2	1775	16.3	311.32625654113
2	1807	16.4	310.93670577991
2	1812	16.5	310.55966426938
2	1817	16.6	310.19513200955
2	1849	16.7	309.84310900041
2	1908	16.8	309.50359524196
2	1913	16.9	309.17659073421
2	1999	17	308.86209547715
2	2004	17.1	308.56010947078
2	2036	17.2	308.27063271511
2	2041	17.3	307.99366521014
2	2073	17.4	307.72920695585
2	2078	17.5	307.47725795226
2	2083	17.6	307.23781819936
2	2115	17.7	307.01088769716
2	2174	17.8	306.79646644565
2	2179	17.9	306.56402982756
2	2265	18	306.27069265145
2	2270	18.1	305.97448737714
2	2302	18.2	305.68248037681
2	2307	18.3	305.17654554129
2	2339	18.4	304.65285721092
2	2344	18.5	304.10733919212
2	2349	18.6	303.40853642242
2	2381	18.7	302.71858603893
2	2440	18.8	302.01981439028
2	2445	18.9	301.3067432362
2	2531	19	300.59267306348
2	2536	19.1	299.87711410665
2	2568	19.2	299.18006150353
2	2573	19.3	298.47091995309
2	2605	19.4	297.74674311245
2	2610	19.5	297.00106767486
2	2615	19.6	296.23466570624
2	2647	19.7	295.44411212631
2	2706	19.8	294.64064863014
2	2711	19.9	293.82168238927
2	2797	20	292.98379193503
2	2802	20.1	292.12650641053
2	2841	20.2	291.24832883169
2	2847	20.3	290.35187903495
2	2886	20.4	289.43450792528
2	2892	20.5	288.50117527435
2	2898	20.6	287.5534852242
2	2937	20.7	286.59136627125
2	3009	20.8	285.61460221067
2	3048	20.9	284.62239761348
2	3186	21	283.61353624017
2	3192	21.1	282.5887949023
2	3231	21.2	281.54953150509
2	3237	21.3	280.4882315172
2	3276	21.4	279.40349869832
2	3282	21.5	278.30272502861
2	3288	21.6	277.17905438413
2	3327	21.7	276.03104562004
2	3399	21.8	274.86238943703
2	3438	21.9	273.673798553
2	3576	22	272.46641902051
2	3582	22.1	271.24162435147
2	3621	22.2	269.99363715129
2	3627	22.3	268.72378795272
2	3666	22.4	267.42918352625
2	3672	22.5	266.11309010411
2	3678	22.6	264.77278732106
2	3717	22.7	263.41599437292
2	3789	22.8	262.04660658587
2	3828	22.9	260.66268979984
2	3966	23	259.25764178626
2	3972	23.1	257.83766658493
2	4011	23.2	256.40076121755
2	4017	23.3	254.93878677062
2	4056	23.4	253.45495043728
2	4062	23.5	251.97145620585
2	4068	23.6	250.4822941161
2	4107	23.7	248.9973377477
2	4179	23.8	247.51195009713
2	4218	23.9	246.02886202666
2	4356	24	244.53875300971
2	4362	24.1	243.04975743099
2	4401	24.2	241.56372818837
2	4407	24.3	240.07696188576
2	4446	24.4	238.58679602963
2	4452	24.5	237.10092262396
2	4458	24.6	235.61052659758
2	4497	24.7	234.12129765761
2	4569	24.8	232.63471276456
2	4608	24.9	231.14973738113
2	4746	25	229.65768019692
2	4752	25.1	228.16809871695
2	4798	25.2	226.67323622466
2	4805	25.3	225.17978210367
2	4851	25.4	223.69464659388
2	4897	25.5	222.20762428484
2	4904	25.6	220.72308638493
2	4950	25.7	219.23401452754
2	5035	25.8	217.74326901464
2	5120	25.9	216.25644689108
2	5283	26	214.78548356261
2	5290	26.1	213.34925796134
2	5336	26.2	211.95612315516
2	5343	26.3	210.6063785181
2	5389	26.4	209.30002405015
2	5435	26.5	208.03705975131
2	5442	26.6	206.81748562159
2	5488	26.7	205.64130166098
2	5573	26.8	204.50850786949
2	5658	26.9	203.41910424711
2	5821	27	202.37243376899
2	5828	27.1	201.36915345998
2	5874	27.2	200.40926332009
2	5881	27.3	199.49276334931
2	5927	27.4	198.61965354764
2	5973	27.5	197.78993391509
2	5980	27.6	197.00360445165
2	6026	27.7	196.26066515732
2	6111	27.8	195.58413989257
2	6196	27.9	194.92498293014
2	6359	28	194.27068849955
2	6366	28.1	193.65061862734
2	6412	28.2	193.15597760455
2	6419	28.3	192.66323191456
2	6465	28.4	192.28434354006
2	6511	28.5	192.08920082449
2	6518	28.6	191.89455100375
2	6564	28.7	191.86254522036
2	6649	28.8	191.95583180059
2	6734	28.9	192.04784973118
2	6897	29	192.15298138309
2	6904	29.1	192.35234094578
2	6950	29.2	192.55840810554
2	6957	29.3	192.77135242489
2	7003	29.4	192.98893335959
2	7049	29.5	193.21185060294
2	7056	29.6	193.44103858592
2	7102	29.7	193.67465409895
2	7187	29.8	193.91199797913
2	7272	29.9	194.15482753268
2	7435	30	194.40423666208
2	7442	30.1	194.65890498326
2	7488	30.2	194.91973432652
2	7495	30.3	195.18746407506
2	7541	30.4	195.45902616187
2	7587	30.5	195.73584068837
2	7595	30.6	196.01673117411
2	7648	30.7	196.30424416372
2	7746	30.8	196.59561252244
2	7844	30.9	196.89144720475
2	8032	31	197.19242832529
2	8040	31.1	197.49762705311
13	198	5.3	1.4237475739403
13	201	5.4	1.5730287651847
13	204	5.5	1.7387283407595
13	207	5.6	1.7793043319501
13	225	5.7	1.9262053066171
13	243	5.8	1.939760692878
13	246	5.9	2.3237843176544
13	279	6	2.0280669806211
13	282	6.1	2.5781387580259
13	285	6.2	2.6617996128199
13	288	6.3	2.7677707845532
13	291	6.4	2.8638279214713
13	294	6.5	2.4883403875669
13	297	6.6	2.8400120749216
13	315	6.7	2.5732601538176
13	333	6.8	2.7290191037298
13	336	6.9	2.9606993504764
13	369	7	3.6063941794717
13	372	7.1	3.4790564184252
13	375	7.2	3.9040375900899
13	378	7.3	3.3481584259729
13	381	7.4	3.5855776735302
13	384	7.5	4.2262046483294
13	387	7.6	4.2467297234806
13	405	7.7	4.8825617676011
13	423	7.8	3.6356514880674
13	426	7.9	4.3556398413022
13	459	8	4.7781196462533
13	462	8.1	3.6458863603121
13	465	8.2	4.9498934223353
13	468	8.3	4.2740156909101
13	471	8.4	3.697688597784
13	474	8.5	5.5191076207656
13	477	8.6	3.9552003379746
13	495	8.7	6.1159632029377
13	513	8.8	4.9628476791066
13	516	8.9	4.3312762967229
13	549	9	5.3480343029083
13	552	9.1	4.8480630661697
13	555	9.2	5.0926578673585
13	558	9.3	5.8420267481325
13	561	9.4	5.6082833547064
13	564	9.5	5.387763809142
13	567	9.6	4.4668301364503
13	585	9.7	6.0085477783899
13	603	9.8	7.1769734382348
13	606	9.9	5.5419081360351
13	639	10	7.190011352097
13	642	10.1	7.8805323328548
13	646	10.2	5.3504357666321
13	650	10.3	5.545036623828
13	675	10.4	7.7391216862905
13	679	10.5	7.3398259906855
13	683	10.6	5.5050411186061
13	708	10.7	5.3480766008472
13	754	10.8	7.1755487654217
13	758	10.9	8.7643406466891
13	804	11	6.9595609393066
13	808	11.1	7.8768676006877
13	812	11.2	6.5650473816747
13	816	11.3	6.2331322986623
13	841	11.4	6.9889893287991
13	845	11.5	7.5326580249215
13	849	11.6	8.2428693629126
13	874	11.7	9.0071791787559
13	920	11.8	9.9165207866014
13	924	11.9	9.7098752867392
13	970	12	9.8899881396187
13	974	12.1	9.0175829581779
13	978	12.2	10.325615391194
13	982	12.3	10.644276683442
13	1007	12.4	3.0603742933579
13	1011	12.5	0.973
13	1015	12.6	2.3797885333587
13	1040	12.7	0.973
13	1086	12.8	0.973
13	1090	12.9	0.973
13	1136	13	1.4849235003659
13	1140	13.1	2.471717733373
13	1144	13.2	0.973
13	1148	13.3	0.973
13	1173	13.4	4.7617693645853
13	1177	13.5	0.973
13	1181	13.6	5.4813057833649
13	1206	13.7	0.973
13	1252	13.8	6.8650327393508
13	1256	13.9	10.451610043257
13	1302	14	9.2215216194928
13	1306	14.1	9.1313135763686
13	1310	14.2	8.6362941121979
13	1314	14.3	3.9365737671983
13	1339	14.4	0.973
13	1343	14.5	3.0011632046521
13	1347	14.6	2.1660743125319
13	1372	14.7	2.1099588002943
13	1418	14.8	1.7038943556409
13	1422	14.9	4.1967508022813
13	1468	15	3.2473744804103
13	1472	15.1	0.973
13	1504	15.2	0.973
13	1509	15.3	5.0209719466997
13	1541	15.4	0.973
13	1546	15.5	1.3763266476852
13	1551	15.6	2.8583583017243
13	1583	15.7	1.0424127935938
13	1642	15.8	5.4483219793819
13	1647	15.9	2.3389030814887
13	1733	16	0.973
13	1738	16.1	2.2384735759463
13	1770	16.2	0.973
13	1775	16.3	0.973
13	1807	16.4	0.973
13	1812	16.5	0.973
13	1817	16.6	0.973
13	1849	16.7	0.973
13	1908	16.8	0.973
13	1913	16.9	0.973
13	1999	17	0.973
13	2004	17.1	0.973
13	2036	17.2	0.973
13	2041	17.3	0.973
13	2073	17.4	0.973
13	2078	17.5	0.973
13	2083	17.6	0.973
13	2115	17.7	0.973
13	2174	17.8	0.973
13	2179	17.9	0.973
13	2265	18	0.973
13	2270	18.1	5.4227345859838
13	2302	18.2	5.6012242714341
13	2307	18.3	5.779961836262
13	2339	18.4	5.9589570223749
13	2344	18.5	6.1382195716797
13	2349	18.6	3.9203525852173
13	2381	18.7	4.3513168537161
13	2440	18.8	4.3222661373164
13	2445	18.9	6.1430994021165
13	2531	19	6.5951527576206
13	2536	19.1	4.5507178167137
13	2568	19.2	3.7685421038588
13	2573	19.3	1.6967485929254
13	2605	19.4	1.6035415535329
13	2610	19.5	0.973
13	2615	19.6	2.683469406877
13	2647	19.7	3.0767993848892
13	2706	19.8	0.973
13	2711	19.9	0.973
13	2797	20	6.5063040523843
13	2802	20.1	5.2335907343678
13	2841	20.2	5.957088988282
13	2847	20.3	5.323766763708
13	2886	20.4	6.3417736404956
13	2892	20.5	5.7855462453197
13	2898	20.6	5.1782625252717
13	2937	20.7	5.4941796353129
13	3009	20.8	7.5508702736179
13	3048	20.9	5.4557532047559
13	3186	21	7.2334467085519
13	3192	21.1	5.4576919803009
13	3231	21.2	7.6892498008784
13	3237	21.3	7.958113365694
13	3276	21.4	6.4443020074055
13	3282	21.5	9.0428095743829
13	3288	21.6	8.4319933798808
13	3327	21.7	7.6422386048157
13	3399	21.8	6.4018285236532
13	3438	21.9	6.5114587173153
13	3576	22	9.7579942373989
13	3582	22.1	9.3540862863873
13	3621	22.2	7.8162815247755
13	3627	22.3	9.821724332618
13	3666	22.4	6.9726885907461
13	3672	22.5	10.195402701643
13	3678	22.6	7.46429980927
13	3717	22.7	6.9934681789467
13	3789	22.8	10.131546495075
13	3828	22.9	9.1244498010677
13	3966	23	6.8582939122984
13	3972	23.1	1.5364239964145
13	4011	23.2	0.973
13	4017	23.3	4.050819937833
13	4056	23.4	0.973
13	4062	23.5	4.5970169059307
13	4068	23.6	0.973
13	4107	23.7	5.2990272735002
13	4179	23.8	0.973
13	4218	23.9	0.973
13	4356	24	2.5982739735467
13	4362	24.1	1.2804263638215
13	4401	24.2	3.2560384561407
13	4407	24.3	0.973
13	4446	24.4	4.5833177595257
13	4452	24.5	3.607782330905
13	4458	24.6	0.973
13	4497	24.7	4.4615640515059
13	4569	24.8	0.973
13	4608	24.9	0.973
13	4746	25	3.460810414381
13	4752	25.1	2.9370802807955
13	4798	25.2	0.973
13	4805	25.3	0.973
13	4851	25.4	5.9353621610183
13	4897	25.5	0.973
13	4904	25.6	1.275612734458
13	4950	25.7	2.7470997720619
13	5035	25.8	1.1284797166512
13	5120	25.9	2.3589366442134
13	5283	26	3.226180655323
13	5290	26.1	0.973
13	5336	26.2	2.7441400450866
13	5343	26.3	3.2143173668565
13	5389	26.4	4.4622315302094
13	5435	26.5	0.973
13	5442	26.6	3.7758239052748
13	5488	26.7	0.973
13	5573	26.8	1.0484644876512
13	5658	26.9	5.4660747657369
13	5821	27	0.973
13	5828	27.1	1.2079638700244
13	5874	27.2	4.0465570144779
13	5881	27.3	2.9141031251959
13	5927	27.4	3.0042117813321
13	5973	27.5	0.973
13	5980	27.6	3.2013195395996
13	6026	27.7	3.4291192786982
13	6111	27.8	0.973
13	6196	27.9	1.2446261280771
13	6359	28	3.8702445329459
13	6366	28.1	0.973
13	6412	28.2	6.1370149224528
13	6419	28.3	0.973
13	6465	28.4	2.3957300031173
13	6511	28.5	0.973
13	6518	28.6	5.2411889524036
13	6564	28.7	0.973
13	6649	28.8	4.1409509498314
13	6734	28.9	0.973
13	6897	29	1.2632049564035
13	6904	29.1	2.0708683901108
13	6950	29.2	1.3591145504642
13	6957	29.3	3.857934217943
13	7003	29.4	3.6235237266204
13	7049	29.5	0.973
13	7056	29.6	4.5040681195597
13	7102	29.7	0.973
13	7187	29.8	3.642604699154
13	7272	29.9	1.1214611597147
13	7435	30	4.3207569061063
13	7442	30.1	1.8681617777864
13	7488	30.2	0.973
13	7495	30.3	3.3669122427379
13	7541	30.4	1.6049448975464
13	7587	30.5	1.8199966817025
13	7595	30.6	3.1055289311287
13	7648	30.7	4.0217967301274
13	7746	30.8	0.973
13	7844	30.9	2.9865078392453
13	8032	31	2.4256941358719
13	8040	31.1	1.2462459069158
13	8138	31.2	5.1711594715746
12	198	5.3	2.4160184257652
12	201	5.4	2.4032548486117
12	204	5.5	2.4528478518219
12	207	5.6	2.1224227347358
12	225	5.7	2.192954110136
12	243	5.8	1.9391276077785
12	246	5.9	2.5071834834149
12	279	6	1.6774750610347
12	282	6.1	2.4759244983791
12	285	6.2	2.3618361614463
12	288	6.3	2.306053972384
12	291	6.4	2.2496431840351
12	294	6.5	1.6239798524184
12	297	6.6	1.9549502176465
12	315	6.7	1.5406996498117
12	333	6.8	1.6391417283332
12	336	6.9	1.8031093417434
12	369	7	2.3465624085627
12	372	7.1	2.0966192031745
12	375	7.2	2.3663311781362
12	378	7.3	1.7753432478523
12	381	7.4	1.899525856832
12	384	7.5	2.3234931214945
12	387	7.6	2.2324047110509
12	405	7.7	2.5903387362603
12	423	7.8	1.6107781668426
12	426	7.9	2.0490346808452
12	459	8	2.2493991798954
12	462	8.1	1.4490376644069
12	465	8.2	2.2184246370569
12	468	8.3	1.7370591988321
12	471	8.4	1.348872832139
12	474	8.5	2.3616525236284
12	477	8.6	1.4128213726915
12	495	8.7	2.5535414493876
12	513	8.8	1.8613727044314
12	516	8.9	1.4857511598151
12	549	9	1.9688599430956
12	552	9.1	1.6695569721051
12	555	9.2	1.7501843167003
12	558	9.3	2.0642401226796
12	561	9.4	1.9023817824433
12	564	9.5	1.7567950280616
12	567	9.6	1.3055394293507
12	585	9.7	1.9625977421412
12	603	9.8	2.4154228030005
12	606	9.9	1.6665889565833
12	639	10	2.3114088772098
12	642	10.1	2.5282658430282
12	646	10.2	1.4680480054813
12	650	10.3	1.5192738080164
12	675	10.4	2.3312650997657
12	679	10.5	2.1271420360077
12	683	10.6	1.4058058243245
12	708	10.7	1.3267215030966
12	754	10.8	1.9650654530153
12	758	10.9	2.4832326556556
12	804	11	1.8047329799505
12	808	11.1	2.0842424115632
12	812	11.2	1.6043197818333
12	816	11.3	1.4688386279158
12	841	11.4	1.6951142302249
12	845	11.5	1.8430399890523
12	849	11.6	2.0367762609618
12	874	11.7	2.2375093692681
12	920	11.8	2.4715285003651
12	924	11.9	2.3583153906511
12	970	12	2.3649280806305
12	974	12.1	2.065569831524
12	978	12.2	2.4041965243872
12	982	12.3	2.4474117824575
12	1007	12.4	0.27595285719014
12	1011	12.5	-0.5535274089314
12	1015	12.6	0.083277429454025
12	1040	12.7	-0.72151244273428
12	1086	12.8	-4.1588535864838
12	1090	12.9	-4.5
12	1136	13	-0.15531653636135
12	1140	13.1	0.14675340293905
12	1144	13.2	-0.45345167531631
12	1148	13.3	-0.4077412160812
12	1173	13.4	0.84852697364985
12	1177	13.5	-0.90654725597705
12	1181	13.6	1.0672538143815
12	1206	13.7	-0.96059726236854
12	1252	13.8	1.4834439461352
12	1256	13.9	2.5224465359235
12	1302	14	2.1154755010968
12	1306	14.1	2.0526506200898
12	1310	14.2	1.8783325833268
12	1314	14.3	0.52681406855141
12	1339	14.4	-0.81284904372879
12	1343	14.5	0.26215903761331
12	1347	14.6	0.022523997235115
12	1372	14.7	0.0064087700331505
12	1418	14.8	-0.1098049777327
12	1422	14.9	0.60138523208442
12	1468	15	0.32826892952436
12	1472	15.1	-0.46133365319111
12	1504	15.2	-0.61428831371012
12	1509	15.3	0.83619994774926
12	1541	15.4	-0.42100736943539
12	1546	15.5	-0.20393415007275
12	1551	15.6	0.22025659945793
12	1583	15.7	-0.29965735399164
12	1642	15.8	0.95585744292475
12	1647	15.9	0.068889785255308
12	1733	16	-0.39831252426374
12	1738	16.1	0.041451701871118
12	1770	16.2	-4.296868622882
12	1775	16.3	-4.5
12	1807	16.4	-4.1552107036083
12	1812	16.5	-4.5
12	1817	16.6	-4.5
12	1849	16.7	-4.5
12	1908	16.8	-4.5
12	1913	16.9	-4.5
12	1999	17	-4.5
12	2004	17.1	-3.9404070783154
12	2036	17.2	-4.3669040069333
12	2041	17.3	-4.5
12	2073	17.4	-4.5
12	2078	17.5	-4.5
12	2083	17.6	-4.5
12	2115	17.7	-4.5
12	2174	17.8	-4.5
12	2179	17.9	-4.5
12	2265	18	-4.5
12	2270	18.1	2.6
12	2302	18.2	2.6
12	2307	18.3	2.6
12	2339	18.4	2.6
12	2344	18.5	2.6
12	2349	18.6	1.3270896761911
12	2381	18.7	1.528189688758
12	2440	18.8	1.4788391654845
12	2445	18.9	2.3642453478184
12	2531	19	2.5100635003298
12	2536	19.1	1.4594752020435
12	2568	19.2	1.0591450251576
12	2573	19.3	0.055616522859783
12	2605	19.4	0.010472366097378
12	2610	19.5	-0.61546003154945
12	2615	19.6	0.53382525343913
12	2647	19.7	0.71596989189276
12	2706	19.8	-0.30390642560087
12	2711	19.9	-0.89222200680524
12	2797	20	2.3290013018763
12	2802	20.1	1.6874481278472
12	2841	20.2	1.973814623151
12	2847	20.3	1.6503413632512
12	2886	20.4	2.0533005590551
12	2892	20.5	1.7712771047372
12	2898	20.6	1.4830634028185
12	2937	20.7	1.5859555665636
12	3009	20.8	2.3774899824522
12	3048	20.9	1.4992783194408
12	3186	21	2.1594768504845
12	3192	21.1	1.4386967624538
12	3231	21.2	2.2483073102078
12	3237	21.3	2.2949710523244
12	3276	21.4	1.7016462402884
12	3282	21.5	2.5851844382472
12	3288	21.6	2.3134741289308
12	3327	21.7	1.9967301370576
12	3399	21.8	1.5444638032
12	3438	21.9	1.5571256117662
12	3576	22	2.5863150627585
12	3582	22.1	2.4002554730978
12	3621	22.2	1.8704351926921
12	3627	22.3	2.4552982720779
12	3666	22.4	1.5421559548006
12	3672	22.5	2.484339174442
12	3678	22.6	1.6313696220284
12	3717	22.7	1.4701124272542
12	3789	22.8	2.3541552342707
12	3828	22.9	2.0253044708632
12	3966	23	1.356566951876
12	3972	23.1	-0.15961933878717
12	4011	23.2	-0.83605457062367
12	4017	23.3	0.55956437916029
12	4056	23.4	-0.80108916054014
12	4062	23.5	0.71635026207661
12	4068	23.6	-0.38368770075031
12	4107	23.7	0.91217373907567
12	4179	23.8	-0.38650622300338
12	4218	23.9	-0.75819446009119
12	4356	24	0.14665564158932
12	4362	24.1	-0.2311100573279
12	4401	24.2	0.33481679940596
12	4407	24.3	-0.32088445983828
12	4446	24.4	0.71222974706908
12	4452	24.5	0.43070312263444
12	4458	24.6	-0.72713217309211
12	4497	24.7	0.67450555465184
12	4569	24.8	-0.43055978254415
12	4608	24.9	-0.5965014172485
12	4746	25	0.39274668761063
12	4752	25.1	0.24159258317667
12	4798	25.2	-0.39544221560936
12	4805	25.3	-0.32706257451791
12	4851	25.4	1.0950250247726
12	4897	25.5	-0.82225183341652
12	4904	25.6	-0.23253535307013
12	4950	25.7	0.1894090837799
12	5035	25.8	-0.27471032626927
12	5120	25.9	0.07873610653915
12	5283	26	0.32618203740567
12	5290	26.1	-0.3417395788245
12	5336	26.2	0.18865937155207
12	5343	26.3	0.32189096987713
12	5389	26.4	0.67402398346458
12	5435	26.5	-0.67290130490436
12	5442	26.6	0.47961376735474
12	5488	26.7	-0.60846046074293
12	5573	26.8	-0.29785882071593
12	5658	26.9	0.96146680070088
12	5821	27	-0.79247242463753
12	5828	27.1	-0.2519452502951
12	5874	27.2	0.55983973790426
12	5881	27.3	0.23459256167989
12	5927	27.4	0.25909058293328
12	5973	27.5	-0.78047350458801
12	5980	27.6	0.31773805844132
12	6026	27.7	0.38076707066503
12	6111	27.8	-0.42170308993665
12	6196	27.9	-0.24183410413096
12	6359	28	0.50769557841122
12	6366	28.1	-0.80631320022512
12	6412	28.2	1.1515972555848
12	6419	28.3	-0.5966003472451
12	6465	28.4	0.086975492094634
12	6511	28.5	-0.45250276373698
12	6518	28.6	0.896837629145
12	6564	28.7	-0.51672549408394
12	6649	28.8	0.58260234612971
12	6734	28.9	-0.59496614278761
12	6897	29	-0.23653804783242
12	6904	29.1	-0.0049716921756193
12	6950	29.2	-0.20869894847273
12	6957	29.3	0.50544336317106
12	7003	29.4	0.43573527571281
12	7049	29.5	-0.69197135441938
12	7056	29.6	0.68695748047903
12	7102	29.7	-0.89112954658921
12	7187	29.8	0.44393475202378
12	7272	29.9	-0.2771728673717
12	7435	30	0.63532480602152
12	7442	30.1	-0.064584633125921
12	7488	30.2	-0.69469888051973
12	7495	30.3	0.3652454894269
12	7541	30.4	-0.13877393491567
12	7587	30.5	-0.076969359791832
12	7595	30.6	0.29005725730675
12	7648	30.7	0.54842786630616
12	7746	30.8	-1.2485155775212
12	7844	30.9	0.2581398961367
12	8032	31	0.096855909656739
12	8040	31.1	-0.24102448702324
12	8138	31.2	0.87831697773654
11	195	5.2	0.25599684562138
11	198	5.3	0.4975986881979
11	201	5.4	0.73792417305907
11	204	5.5	0.98320895824126
11	207	5.6	1.1954512317148
11	225	5.7	1.4147466427284
11	243	5.8	1.6086594035063
11	246	5.9	1.8593777518478
11	279	6	2.0271252579513
11	282	6.1	2.2747177077892
11	285	6.2	2.5109013239338
11	288	6.3	2.7415067211722
11	291	6.4	2.9664710395757
11	294	6.5	3.1288690248176
11	297	6.6	3.3243640465822
11	315	6.7	3.4784340115634
11	333	6.8	3.6423481843967
11	336	6.9	3.822659118571
11	369	7	4.0573153594273
11	372	7.1	4.2669772797448
11	375	7.2	4.5036103975584
11	378	7.3	4.6811447223436
11	381	7.4	4.8710973080268
11	384	7.5	5.1034466201763
11	387	7.6	5.3266870912814
11	405	7.7	5.5857209649074
11	423	7.8	5.7467987815917
11	426	7.9	5.9517022496762
11	459	8	6.1766421676657
11	462	8.1	6.3215459341064
11	465	8.2	6.5433883978121
11	468	8.3	6.7170943176953
11	471	8.4	6.8519816009092
11	474	8.5	7.0881468532721
11	477	8.6	7.2294289905412
11	495	8.7	7.48478313548
11	513	8.8	7.6709204059231
11	516	8.9	7.8194955219046
11	549	9	8.0163815162142
11	552	9.1	8.1833372134247
11	555	9.2	8.3583556450947
11	558	9.3	8.5647796573627
11	561	9.4	8.755017835607
11	564	9.5	8.9306973384132
11	567	9.6	9.0612512813482
11	585	9.7	9.2575110555624
11	603	9.8	9.4990533358624
11	606	9.9	9.6657122315207
11	639	10	9.8968531192417
11	642	10.1	10.149679703545
11	646	10.2	10.296484504093
11	650	10.3	10.448411884894
11	675	10.4	10.681538394871
11	679	10.5	10.894252598472
11	683	10.6	11.034833180904
11	708	10.7	11.167505331214
11	754	10.8	11.364011876515
11	758	10.9	11.612335142081
11	804	11	11.792808440076
11	808	11.1	12.001232681232
11	812	11.2	12.161664659416
11	816	11.3	12.308548522207
11	841	11.4	12.47805994523
11	845	11.5	12.662363944135
11	849	11.6	12.866041570231
11	874	11.7	13.089792507158
11	920	11.8	13.336945357194
11	924	11.9	13.572776896259
11	970	12	13.809269704323
11	974	12.1	14.015826687475
11	978	12.2	14.256246339914
11	982	12.3	14.500987518159
11	1007	12.4	14.528582803878
11	1011	12.5	14.473230062985
11	1015	12.6	14.481557805931
11	1040	12.7	14.409406561657
11	1086	12.8	13.993521203009
11	1090	12.9	13.543521203009
11	1136	13	13.527989549373
11	1140	13.1	13.542664889667
11	1144	13.2	13.497319722135
11	1148	13.3	13.456545600527
11	1173	13.4	13.541398297892
11	1177	13.5	13.450743572294
11	1181	13.6	13.557468953732
11	1206	13.7	13.461409227495
11	1252	13.8	13.609753622109
11	1256	13.9	13.861998275701
11	1302	14	14.073545825811
11	1306	14.1	14.27881088782
11	1310	14.2	14.466644146153
11	1314	14.3	14.519325553008
11	1339	14.4	14.438040648635
11	1343	14.5	14.464256552396
11	1347	14.6	14.46650895212
11	1372	14.7	14.467149829123
11	1418	14.8	14.45616933135
11	1422	14.9	14.516307854558
11	1468	15	14.549134747511
11	1472	15.1	14.503001382192
11	1504	15.2	14.441572550821
11	1509	15.3	14.525192545596
11	1541	15.4	14.483091808652
11	1546	15.5	14.462698393645
11	1551	15.6	14.48472405359
11	1583	15.7	14.454758318191
11	1642	15.8	14.550344062484
11	1647	15.9	14.557233041009
11	1733	16	14.517401788583
11	1738	16.1	14.52154695877
11	1770	16.2	14.091860096482
11	1775	16.3	13.641860096482
11	1807	16.4	13.226339026121
11	1812	16.5	12.776339026121
11	1817	16.6	12.326339026121
11	1849	16.7	11.876339026121
11	1908	16.8	11.426339026121
11	1913	16.9	10.976339026121
11	1999	17	10.526339026121
11	2004	17.1	10.13229831829
11	2036	17.2	9.6956079175962
11	2041	17.3	9.2456079175962
11	2073	17.4	8.7956079175962
11	2078	17.5	8.3456079175962
11	2083	17.6	7.8956079175962
11	2115	17.7	7.4456079175962
11	2174	17.8	6.9956079175962
11	2179	17.9	6.5456079175962
11	2265	18	6.0956079175962
11	2270	18.1	6.3556079175962
11	2302	18.2	6.6156079175962
11	2307	18.3	6.8756079175962
11	2339	18.4	7.1356079175962
11	2344	18.5	7.3956079175962
11	2349	18.6	7.5283168852153
11	2381	18.7	7.6811358540911
11	2440	18.8	7.8290197706395
11	2445	18.9	8.0654443054214
11	2531	19	8.3164506554544
11	2536	19.1	8.4623981756587
11	2568	19.2	8.5683126781745
11	2573	19.3	8.5738743304605
11	2605	19.4	8.5749215670702
11	2610	19.5	8.5133755639152
11	2615	19.6	8.5667580892592
11	2647	19.7	8.6383550784484
11	2706	19.8	8.6079644358883
11	2711	19.9	8.5187422352078
11	2797	20	8.7516423653954
11	2802	20.1	8.9203871781802
11	2841	20.2	9.1177686404953
11	2847	20.3	9.2828027768204
11	2886	20.4	9.4881328327259
11	2892	20.5	9.6652605431996
11	2898	20.6	9.8135668834815
11	2937	20.7	9.9721624401378
11	3009	20.8	10.209911438383
11	3048	20.9	10.359839270327
11	3186	21	10.575786955376
11	3192	21.1	10.719656631621
11	3231	21.2	10.944487362642
11	3237	21.3	11.173984467874
11	3276	21.4	11.344149091903
11	3282	21.5	11.602667535728
11	3288	21.6	11.834014948621
11	3327	21.7	12.033687962327
11	3399	21.8	12.188134342647
11	3438	21.9	12.343846903823
11	3576	22	12.602478410099
11	3582	22.1	12.842503957409
11	3621	22.2	13.029547476678
11	3627	22.3	13.275077303886
11	3666	22.4	13.429292899366
11	3672	22.5	13.67772681681
11	3678	22.6	13.840863779013
11	3717	22.7	13.987875021738
11	3789	22.8	14.223290545165
11	3828	22.9	14.425820992252
11	3966	23	14.561477687439
11	3972	23.1	14.545515753561
11	4011	23.2	14.461910296498
11	4017	23.3	14.517866734414
11	4056	23.4	14.43775781836
11	4062	23.5	14.509392844568
11	4068	23.6	14.471024074493
11	4107	23.7	14.5622414484
11	4179	23.8	14.5235908261
11	4218	23.9	14.447771380091
11	4356	24	14.46243694425
11	4362	24.1	14.439325938517
11	4401	24.2	14.472807618458
11	4407	24.3	14.440719172474
11	4446	24.4	14.511942147181
11	4452	24.5	14.555012459444
11	4458	24.6	14.482299242135
11	4497	24.7	14.5497497976
11	4569	24.8	14.506693819346
11	4608	24.9	14.447043677621
11	4746	25	14.486318346382
11	4752	25.1	14.5104776047
11	4798	25.2	14.470933383139
11	4805	25.3	14.438227125687
11	4851	25.4	14.547729628164
11	4897	25.5	14.465504444823
11	4904	25.6	14.442250909516
11	4950	25.7	14.461191817894
11	5035	25.8	14.433720785267
11	5120	25.9	14.441594395921
11	5283	26	14.474212599661
11	5290	26.1	14.440038641779
11	5336	26.2	14.458904578934
11	5343	26.3	14.491093675922
11	5389	26.4	14.558496074268
11	5435	26.5	14.491205943778
11	5442	26.6	14.539167320513
11	5488	26.7	14.478321274439
11	5573	26.8	14.448535392367
11	5658	26.9	14.544682072437
11	5821	27	14.465434829974
11	5828	27.1	14.440240304944
11	5874	27.2	14.496224278734
11	5881	27.3	14.519683534902
11	5927	27.4	14.545592593196
11	5973	27.5	14.467545242737
11	5980	27.6	14.499319048581
11	6026	27.7	14.537395755648
11	6111	27.8	14.495225446654
11	6196	27.9	14.471042036241
11	6359	28	14.521811594082
11	6366	28.1	14.441180274059
11	6412	28.2	14.556339999618
11	6419	28.3	14.496679964893
11	6465	28.4	14.505377514103
11	6511	28.5	14.460127237729
11	6518	28.6	14.549811000644
11	6564	28.7	14.498138451235
11	6649	28.8	14.556398685848
11	6734	28.9	14.49690207157
11	6897	29	14.473248266786
11	6904	29.1	14.472751097569
11	6950	29.2	14.451881202721
11	6957	29.3	14.502425539039
11	7003	29.4	14.54599906661
11	7049	29.5	14.476801931168
11	7056	29.6	14.545497679216
11	7102	29.7	14.456384724557
11	7187	29.8	14.500778199759
11	7272	29.9	14.473060913022
11	7435	30	14.536593393624
11	7442	30.1	14.530134930312
11	7488	30.2	14.46066504226
11	7495	30.3	14.497189591202
11	7541	30.4	14.483312197711
11	7587	30.5	14.475615261732
11	7595	30.6	14.504620987462
11	7648	30.7	14.559463774093
11	7746	30.8	14.434612216341
11	7844	30.9	14.460426205954
11	8032	31	14.47011179692
11	8040	31.1	14.446009348218
11	8138	31.2	14.533841045991
10	192	5.1	613.77016359918
10	195	5.2	613.77709139385
10	198	5.3	613.79055742515
10	201	5.4	613.81052715226
10	204	5.5	613.83713478392
10	207	5.6	613.86948612263
10	225	5.7	613.90777204064
10	243	5.8	613.95130563186
10	246	5.9	614.00162417088
10	279	6	614.05648229818
10	282	6.1	614.11804078011
10	285	6.2	614.18599087048
10	288	6.3	614.26018161133
10	291	6.4	614.34046034362
10	294	6.5	614.42513389528
10	297	6.6	614.51509793935
10	315	6.7	614.60923142964
10	333	6.8	614.70780077042
10	336	6.9	614.81124969135
10	369	7	614.92104888683
10	372	7.1	615.03652195977
10	375	7.2	615.15839880557
10	378	7.3	615.28508009083
10	381	7.4	615.41690187892
10	384	7.5	615.55501151138
10	387	7.6	615.69916248447
10	405	7.7	615.85032344037
10	423	7.8	616.0058434892
10	426	7.9	616.16690864211
10	459	8	616.33406112612
10	462	8.1	616.50513500041
10	465	8.2	616.68221238241
10	468	8.3	616.86399059946
10	471	8.4	617.0494191404
10	474	8.5	617.24123879281
10	477	8.6	617.43688182684
10	495	8.7	617.63943526275
10	513	8.8	617.8470259513
10	516	8.9	618.05863738431
10	549	9	618.27557695227
10	552	9.1	618.49703468054
10	555	9.2	618.72322876309
10	558	9.3	618.95500909874
10	561	9.4	619.19193766594
10	564	9.5	619.43362047735
10	567	9.6	619.67883634365
10	585	9.7	619.92936339812
10	603	9.8	620.18642707735
10	606	9.9	620.44587460008
10	639	10	620.70887747882
10	642	10.1	620.97859907095
10	646	10.2	621.25222191175
10	650	10.3	621.52988213069
10	675	10.4	621.81373754548
10	679	10.5	622.10324571142
10	683	10.6	622.39648972121
10	708	10.7	622.69325941305
10	754	10.8	622.99525114735
10	758	10.9	623.30384192206
10	804	11	623.61722866538
10	808	11.1	623.9361541567
10	812	11.2	624.25743143921
10	816	11.3	624.57752516842
10	841	11.4	624.90202717886
10	845	11.5	625.23132216341
10	849	11.6	625.56591394885
10	874	11.7	625.90632455783
10	920	11.8	626.25316257597
10	924	11.9	626.60613358344
10	970	12	626.96525477708
10	974	12.1	627.32974765161
10	978	12.2	627.70049283308
10	982	12.3	628.07760270622
10	1007	12.4	628.45543021702
10	1011	12.5	628.83181823517
10	1015	12.6	629.03181509837
10	1040	12.7	628.4393236512
10	1086	12.8	627.86393273603
10	1090	12.9	627.38931904541
10	1136	13	626.92590774815
10	1140	13.1	626.61486595513
10	1144	13.2	626.43750655713
10	1148	13.3	626.4721204832
10	1173	13.4	626.60950059478
10	1177	13.5	626.86284691995
10	1181	13.6	627.15211437362
10	1206	13.7	627.44550334482
10	1252	13.8	627.75227657199
10	1256	13.9	628.06473556751
10	1302	14	628.38196299062
10	1306	14.1	628.70381722971
10	1310	14.2	629.0299053599
10	1314	14.3	629.35718096531
10	1339	14.4	629.68262435296
10	1343	14.5	630.00865866514
10	1347	14.6	630.33474374797
10	1372	14.7	630.6608432766
10	1418	14.8	630.98669529725
10	1422	14.9	631.31390288166
10	1468	15	631.64185040687
10	1472	15.1	631.7088406912
10	1504	15.2	630.29907952242
10	1509	15.3	628.88115551534
10	1541	15.4	627.46734130891
10	1546	15.5	626.05551787214
10	1551	15.6	624.64154432879
10	1583	15.7	623.23049598836
10	1642	15.8	621.810116734
10	1647	15.9	620.38906498954
10	1733	16	618.9719015026
10	1738	16.1	617.55433337136
10	1770	16.2	616.17871052351
10	1775	16.3	614.84701589218
10	1807	16.4	613.55588370429
10	1812	16.5	612.30867973292
10	1817	16.6	611.1492028506
10	1849	16.7	610.07671549117
10	1908	16.8	609.32805652709
10	1913	16.9	609.11154553338
10	1999	17	609.29226462184
10	2004	17.1	609.46621871087
10	2036	17.2	609.63267557878
10	2041	17.3	609.81506602685
10	2073	17.4	610.05235413044
10	2078	17.5	610.27750212415
10	2083	17.6	610.49051000797
10	2115	17.7	610.69137778191
10	2174	17.8	610.88010544596
10	2179	17.9	611.05669300013
10	2265	18	611.20454214522
10	2270	18.1	611.28461233769
10	2302	18.2	611.36795810194
10	2307	18.3	611.45457943799
10	2339	18.4	611.54447634584
10	2344	18.5	611.63764882549
10	2349	18.6	611.53210332151
10	2381	18.7	611.32015749863
10	2440	18.8	611.1041311102
10	2445	18.9	610.88158105215
10	2531	19	610.48036218429
10	2536	19.1	609.90670474454
10	2568	19.2	609.32586746746
10	2573	19.3	608.74465317158
10	2605	19.4	608.05527967526
10	2610	19.5	607.29286297845
10	2615	19.6	606.52566560113
10	2647	19.7	605.75205634411
10	2706	19.8	604.98116872589
10	2711	19.9	604.18123062807
10	2797	20	603.35293145866
10	2802	20.1	602.50866143686
10	2841	20.2	601.64571024707
10	2847	20.3	600.76713940186
10	2886	20.4	599.86913509403
10	2892	20.5	598.9543665345
10	2898	20.6	598.02556152177
10	2937	20.7	597.08174623298
10	3009	20.8	596.11542919086
10	3048	20.9	595.13492222946
10	3186	21	594.13397689997
10	3192	21.1	593.11941502533
10	3231	21.2	592.08357404672
10	3237	21.3	591.02601231517
10	3276	21.4	589.95234535322
10	3282	21.5	588.8542109138
10	3288	21.6	587.73418059908
10	3327	21.7	586.59525223249
10	3399	21.8	585.44170628862
10	3438	21.9	584.2734229298
10	3576	22	583.08066139273
10	3582	22.1	581.86518263833
10	3621	22.2	580.63200115054
10	3627	22.3	579.37558149287
10	3666	22.4	578.10456610056
10	3672	22.5	576.81003768076
10	3678	22.6	575.50006916359
10	3717	22.7	574.17618676773
10	3789	22.8	572.83002347025
10	3828	22.9	571.46469167913
10	3966	23	570.08652066043
10	3972	23.1	568.70986035892
10	4011	23.2	567.34111289568
10	4017	23.3	565.96706943552
10	4056	23.4	564.60060788352
10	4062	23.5	563.22736643464
10	4068	23.6	561.85775639791
10	4107	23.7	560.47951309306
10	4179	23.8	559.10492787625
10	4218	23.9	557.73751859073
10	4356	24	556.36872128291
10	4362	24.1	555.00211131618
10	4401	24.2	553.63233247594
10	4407	24.3	552.26559064658
10	4446	24.4	550.89210791896
10	4452	24.5	549.51454880175
10	4458	24.6	548.14387162681
10	4497	24.7	546.76681059421
10	4569	24.8	545.39382459457
10	4608	24.9	544.02648418244
10	4746	25	542.65542661938
10	4752	25.1	541.28208250339
10	4798	25.2	539.91248105014
10	4805	25.3	538.54597508054
10	4851	25.4	537.16910524688
10	4897	25.5	535.80001761548
10	4904	25.6	534.43313081488
10	4950	25.7	533.06445135205
10	5035	25.8	531.69837188503
10	5120	25.9	530.3136852446
10	5283	26	528.91273881127
10	5290	26.1	527.51510004556
10	5336	26.2	526.11563526222
10	5343	26.3	524.71305492422
10	5389	26.4	523.30395076677
10	5435	26.5	521.90135956246
10	5442	26.6	520.49412621826
10	5488	26.7	519.09278210987
10	5573	26.8	517.69432095107
10	5658	26.9	516.28655383883
10	5821	27	514.88645699819
10	5828	27.1	513.48879871368
10	5874	27.2	512.08572178909
10	5881	27.3	510.68037426353
10	5927	27.4	509.27251902278
10	5973	27.5	507.87221791712
10	5980	27.6	506.46884145246
10	6026	27.7	505.06177957648
10	6111	27.8	503.65879932798
10	6196	27.9	502.25815977072
10	6359	28	500.85260627217
10	6366	28.1	499.45485700887
10	6412	28.2	498.04596153601
10	6419	28.3	496.64284050596
10	6465	28.4	495.2388776477
10	6511	28.5	493.83929452428
10	6518	28.6	492.43103098755
10	6564	28.7	491.02776879187
10	6649	28.8	489.61886763883
10	6734	28.9	488.21572511126
10	6897	29	486.81487201487
10	6904	29.1	485.41406703905
10	6950	29.2	484.01528204218
10	6957	29.3	482.61160490302
10	7003	29.4	481.20371032006
10	7049	29.5	479.80251326758
10	7056	29.6	478.39466721348
10	7102	29.7	476.99544632465
10	7187	29.8	475.59192863002
10	7272	29.9	474.19109366743
10	7435	30	472.78410945137
10	7442	30.1	471.37775034435
10	7488	30.2	469.9781151673
10	7495	30.3	468.57494481097
10	7541	30.4	467.17311763546
10	7587	30.5	465.77203543969
10	7595	30.6	464.36814580498
10	7648	30.7	462.95894798471
10	7746	30.8	461.56183443799
10	7844	30.9	460.1622223777
10	8032	31	458.7616728575
10	8040	31.1	457.36345619231
10	8138	31.2	455.95673837358
9	192	5.1	29.478793456033
9	195	5.2	29.503433370553
9	198	5.3	29.551327668286
9	201	5.4	29.622353498712
9	204	5.5	29.716988198715
9	207	5.6	29.832051398387
9	225	5.7	29.968221968225
9	243	5.8	30.123056806518
9	246	5.9	30.30202349947
9	279	6	30.497136032819
9	282	6.1	30.716079550433
9	285	6.2	30.957755942348
9	288	6.3	31.221628300241
9	291	6.4	31.507153665468
9	294	6.5	31.808309975151
9	297	6.6	32.128282847255
9	315	6.7	32.463085084769
9	333	6.8	32.813664201086
9	336	6.9	33.181598398456
9	369	7	33.572118458955
9	372	7.1	33.982818657932
9	375	7.2	34.416294996129
9	378	7.3	34.86685916436
9	381	7.4	35.335706430818
9	384	7.5	35.82691751655
9	387	7.6	36.339615687844
9	405	7.7	36.877246090193
9	423	7.8	37.430380369648
9	426	7.9	38.0032367825
9	459	8	38.597743854126
9	462	8.1	39.20619803674
9	465	8.2	39.836004745514
9	468	8.3	40.482530797088
9	471	8.4	41.142039864605
9	474	8.5	41.824280038894
9	477	8.6	42.520118739279
9	495	8.7	43.240535493696
9	513	8.8	43.978868118997
9	516	8.9	44.731501225809
9	549	9	45.503084777335
9	552	9.1	46.290737956978
9	555	9.2	47.095236809798
9	558	9.3	47.919604149689
9	561	9.4	48.762282076333
9	564	9.5	49.621869304816
9	567	9.6	50.494022461548
9	585	9.7	51.385065788778
9	603	9.8	52.299357766299
9	606	9.9	53.230648938849
9	639	10	54.18540418094
9	642	10.1	55.164549752341
9	646	10.2	56.157857669206
9	650	10.3	57.165822109867
9	675	10.4	58.196276402078
9	679	10.5	59.247251358636
9	683	10.6	60.311788206676
9	708	10.7	61.389124015099
9	754	10.8	62.48541692554
9	758	10.9	63.605665727482
9	804	11	64.743324894642
9	808	11.1	65.901090870949
9	812	11.2	67.074569427264
9	816	11.3	68.262844941108
9	841	11.4	69.467485201203
9	845	11.5	70.689918292728
9	849	11.6	71.932014558621
9	874	11.7	73.195711889747
9	920	11.8	74.483269522463
9	924	11.9	75.793594489829
9	970	12	77.126750631197
9	974	12.1	78.47984792199
9	978	12.2	79.85615548697
9	982	12.3	81.256090529131
9	1007	12.4	82.658689638648
9	1011	12.5	84.055944957506
9	1015	12.6	85.439782953608
9	1040	12.7	86.752991608907
9	1086	12.8	88.028298338805
9	1090	12.9	89.29654683873
9	1136	13	90.567739296364
9	1140	13.1	91.877829611298
9	1144	13.2	93.216086887144
9	1148	13.3	94.553489354486
9	1173	13.4	95.900871218022
9	1177	13.5	97.220574300045
9	1181	13.6	98.545335392225
9	1206	13.7	99.859256287859
9	1252	13.8	101.18526518264
9	1256	13.9	102.53585047046
9	1302	14	103.90704700085
9	1306	14.1	105.2982426661
9	1310	14.2	106.70773907198
9	1314	14.3	108.12236826837
9	1339	14.4	109.52907781322
9	1343	14.5	110.93834159399
9	1347	14.6	112.34782482781
9	1372	14.7	113.75737050279
9	1418	14.8	115.16584633931
9	1422	14.9	116.58018151899
9	1468	15	117.99771504841
9	1472	15.1	119.24697068164
9	1504	15.2	119.56056065987
9	1509	15.3	119.8759663955
9	1541	15.4	120.1904579392
9	1546	15.5	120.50450665227
9	1551	15.6	120.81903363917
9	1583	15.7	121.13290993833
9	1642	15.8	121.44886182388
9	1647	15.9	121.76496329941
9	1733	16	122.08019986349
9	1738	16.1	122.39552643741
9	1770	16.2	122.70152262206
9	1775	16.3	122.99774732997
9	1807	16.4	123.28494925016
9	1812	16.5	123.56237969362
9	1817	16.6	123.95729556006
9	1849	16.7	124.46755386323
9	1908	16.8	125.18512592752
9	1913	16.9	126.25625359925
9	1999	17	127.29330313763
9	2004	17.1	128.29153198697
9	2036	17.2	129.24673832132
9	2041	17.3	130.15224956807
9	2073	17.4	130.99923627117
9	2078	17.5	131.80288952648
9	2083	17.6	132.56320933401
9	2115	17.7	133.28019569376
9	2174	17.8	133.95384860573
9	2179	17.9	134.58416806992
9	2265	18	135.17451939364
9	2270	18.1	135.80507215927
9	2302	18.2	136.46142005279
9	2307	18.3	137.1435630742
9	2339	18.4	137.8515012235
9	2344	18.5	138.5852345007
9	2349	18.6	139.31641132631
9	2381	18.7	140.05439136019
9	2440	18.8	140.80657962834
9	2445	18.9	141.5814828425
9	2531	19	142.28388062848
9	2536	19.1	142.90555344865
9	2568	19.2	143.5350070617
9	2573	19.3	144.16486925019
9	2605	19.4	144.65052247508
9	2610	19.5	145.02858034126
9	2615	19.6	145.40900879283
9	2647	19.7	145.79261668887
9	2706	19.8	146.17487501195
9	2711	19.9	146.46497542234
9	2797	20	146.74755178983
9	2802	20.1	147.03557665422
9	2841	20.2	147.32997464656
9	2847	20.3	147.62970132406
9	2886	20.4	147.93605777673
9	2892	20.5	148.2481333965
9	2898	20.6	148.56499758796
9	2937	20.7	148.88698257326
9	3009	20.8	149.21664408892
9	3048	20.9	149.55114653162
9	3186	21	149.89262157555
9	3192	21.1	150.23874193848
9	3231	21.2	150.59212172182
9	3237	21.3	150.95291159526
9	3276	21.4	151.31919580899
9	3282	21.5	151.69382716486
9	3288	21.6	152.07592835427
9	3327	21.7	152.46447666211
9	3399	21.8	152.8580117936
9	3438	21.9	153.25657463168
9	3576	22	153.6634882625
9	3582	22.1	154.07815192976
9	3621	22.2	154.49885492953
9	3627	22.3	154.92748569003
9	3666	22.4	155.36109582251
9	3672	22.5	155.80272748409
9	3678	22.6	156.24962657416
9	3717	22.7	156.70127241931
9	3789	22.8	157.16051945069
9	3828	22.9	157.62630586242
9	3966	23	158.09647240927
9	3972	23.1	158.56612357111
9	4011	23.2	159.03307524806
9	4017	23.3	159.50183366783
9	4056	23.4	159.96800550035
9	4062	23.5	160.43649031192
9	4068	23.6	160.90373625801
9	4107	23.7	161.37392746547
9	4179	23.8	161.84287070689
9	4218	23.9	162.30936586112
9	4356	24	162.77633454267
[...]
408	245582	299.3	190.83900974524
408	245589	299.4	191.14174237261
408	245635	299.5	191.44505876823
408	245642	299.6	191.74862066299
408	245766	299.7	192.0516815683
408	245851	299.8	192.28345302062
408	245858	299.9	192.49472878039
408	245865	300	192.71233851948
409	237284	290.5	610.41
409	237295	290.6	610.41
409	237495	290.7	610.41
409	237758	290.8	610.41975
409	237769	290.9	610.43925
409	237780	291	610.4685
409	237980	291.1	610.5075
409	238180	291.2	610.55625
409	238380	291.3	610.61475
409	238454	291.4	610.683
409	238654	291.5	610.761
409	238665	291.6	610.84875
409	238865	291.7	610.94625
409	239128	291.8	611.15636050747
409	239139	291.9	611.38446532676
409	239150	292	611.63252465737
409	239350	292.1	611.95577431815
409	239531	292.2	612.28036955001
409	239712	292.3	612.58560877595
409	239779	292.4	612.82627236091
409	239903	292.5	613.07104754615
409	239913	292.6	613.31762094097
409	240094	292.7	613.55388231702
409	240275	292.8	613.62664383651
409	240285	292.9	613.70271013187
409	240295	293	613.78163799106
409	240476	293.1	613.86383135705
409	240657	293.2	613.94865833054
409	240819	293.3	614.03717642394
409	240879	293.4	614.12829880281
409	240939	293.5	614.22362712989
409	240948	293.6	614.32263140177
409	241110	293.7	614.42484292063
409	241272	293.8	614.52989981491
409	241281	293.9	614.64001777626
409	241290	294	614.75527950362
409	241452	294.1	614.87336596477
409	241563	294.2	614.99529756193
409	241725	294.3	615.12128826071
409	241785	294.4	615.25179157903
409	241845	294.5	615.38576056855
409	241854	294.6	615.52408106208
409	242016	294.7	615.66751812974
409	242178	294.8	615.81580911725
409	242187	294.9	615.968205608
409	242196	295	616.12352977194
409	242358	295.1	616.28164309523
409	242418	295.2	616.44295598206
409	242631	295.3	616.60721178174
409	242691	295.4	616.77433485746
409	242751	295.5	616.9456440042
409	242760	295.6	617.11985679687
409	242973	295.7	617.29687758027
409	243084	295.8	617.47688028234
409	243093	295.9	617.66022194728
409	243102	296	617.84780934159
409	243264	296.1	618.03802933056
409	243324	296.2	618.2332208864
409	243537	296.3	618.43133066859
409	243597	296.4	618.63415375862
409	243657	296.5	618.84038154028
409	243666	296.6	619.05162626911
409	243809	296.7	619.26617270547
409	243907	296.8	619.4796658358
409	243915	296.9	619.68419586399
409	243923	297	619.87976279002
409	244021	297.1	620.0663666139
409	244074	297.2	620.24400733563
409	244262	297.3	620.41268495521
409	244315	297.4	620.57239947263
409	244368	297.5	620.7231508879
409	244376	297.6	620.86493920102
409	244519	297.7	620.99776441198
409	244617	297.8	621.1216265208
409	244625	297.9	621.2069214045
409	244633	298	621.24435807236
409	244731	298.1	621.28323918466
409	244784	298.2	621.32356474141
409	244972	298.3	621.3653347426
409	245025	298.4	621.35423412754
409	245078	298.5	621.10290688773
409	245086	298.6	620.85250901544
409	245229	298.7	620.60239237169
409	245313	298.8	620.34488282841
409	245320	298.9	619.79969514873
409	245327	299	619.25062695682
409	245412	299.1	618.70182020292
409	245419	299.2	618.16040264735
409	245582	299.3	617.48275013604
409	245589	299.4	616.78096086351
409	245635	299.5	616.07781831001
409	245642	299.6	615.37410664489
409	245766	299.7	614.67155636439
409	245851	299.8	613.93664732319
409	245858	299.9	613.17478544033
409	245865	300	612.3900831833
410	237295	290.6	0
410	237495	290.7	0
410	237758	290.8	0.26
410	237769	290.9	0.52
410	237780	291	0.78
410	237980	291.1	1.04
410	238180	291.2	1.3
410	238380	291.3	1.56
410	238454	291.4	1.82
410	238654	291.5	2.08
410	238665	291.6	2.34
410	238865	291.7	2.6
410	239128	291.8	2.7354475340876
410	239139	291.9	2.913145983594
410	239150	292	3.1679867392173
410	239350	292.1	3.3772866727319
410	239531	292.2	3.3482481161485
410	239712	292.3	3.3881847837594
410	239779	292.4	3.361360255529
410	239903	292.5	3.4187871812241
410	239913	292.6	3.4439028636649
410	240094	292.7	3.4397657209103
410	240275	292.8	3.6401462479475
410	240285	292.9	3.8076122989881
410	240295	293	3.9508521604215
410	240476	293.1	4.114311992417
410	240657	293.2	4.2461411591017
410	240819	293.3	4.4309056917954
410	240879	293.4	4.5612671006917
410	240939	293.5	4.7718021353221
410	240948	293.6	4.9558070554029
410	241110	293.7	5.1163506053694
410	241272	293.8	5.2587801315266
410	241281	293.9	5.5121194211793
410	241290	294	5.7695983299314
410	241452	294.1	5.910994609462
410	241563	294.2	6.1034686483376
410	241725	294.3	6.3066530578214
410	241785	294.4	6.5325389848723
410	241845	294.5	6.7098652931516
410	241854	294.6	6.9444954466078
410	242016	294.7	7.2013773077893
410	242178	294.8	7.4450723921325
410	242187	294.9	7.651192597051
410	242196	295	7.7981788656631
410	242358	295.1	7.9382109304847
410	242418	295.2	8.0988476804461
410	242631	295.3	8.2465990676594
410	242691	295.4	8.3905530471707
410	242751	295.5	8.6007182246566
410	242760	295.6	8.746498184542
410	242973	295.7	8.8874756945021
410	243084	295.8	9.0371854027341
410	243093	295.9	9.2048208109828
410	243102	296	9.41798118579
410	243264	296.1	9.5501527911544
410	243324	296.2	9.7997544415671
410	243537	296.3	9.9462664230125
410	243597	296.4	10.182901964414
410	243657	296.5	10.353837339795
410	243666	296.6	10.60571734624
410	243809	296.7	10.771482319406
410	243907	296.8	10.718600214369
410	243915	296.9	10.268600214369
410	243923	297	9.8186002143689
410	244021	297.1	9.3686002143689
410	244074	297.2	8.9186002143689
410	244262	297.3	8.4686002143689
410	244315	297.4	8.0186002143689
410	244368	297.5	7.5686002143689
410	244376	297.6	7.1186002143689
410	244519	297.7	6.6686002143689
410	244617	297.8	6.2186002143689
410	244625	297.9	6.4786002143689
410	244633	298	6.7386002143689
410	244731	298.1	6.9986002143689
410	244784	298.2	7.2586002143689
410	244972	298.3	7.5186002143689
410	245025	298.4	7.6494612417059
410	245078	298.5	7.7415711369706
410	245086	298.6	7.7129440579043
410	245229	298.7	7.7042814440621
410	245313	298.8	7.6792123821858
410	245320	298.9	7.6766036699681
410	245327	299	7.7312438526741
410	245412	299.1	7.7275626323806
410	245419	299.2	7.6235178252255
410	245582	299.3	7.7003606888178
410	245589	299.4	7.6429397300623
410	245635	299.5	7.6576778363172
410	245642	299.6	7.6638758305545
410	245766	299.7	7.6512275997215
410	245851	299.8	7.7222655318367
410	245858	299.9	7.909776235981
410	245865	300	8.1469087832133
411	237495	290.7	0
411	237758	290.8	2.6
411	237769	290.9	2.6
411	237780	291	2.6
411	237980	291.1	2.6
411	238180	291.2	2.6
411	238380	291.3	2.6
411	238454	291.4	2.6
411	238654	291.5	2.6
411	238665	291.6	2.6
411	238865	291.7	2.6
411	239128	291.8	1.3544753408758
411	239139	291.9	1.7769844950642
411	239150	292	2.548407556233
411	239350	292.1	2.0929993351456
411	239531	292.2	-0.29038556583356
411	239712	292.3	0.39936667610891
411	239779	292.4	-0.26824528230354
411	239903	292.5	0.57426925695036
411	239913	292.6	0.2511568244081
411	240094	292.7	-0.041371427546255
411	240275	292.8	2.003805270372
411	240285	292.9	1.6746605104068
411	240295	293	1.4323986143339
411	240476	293.1	1.6345983199542
411	240657	293.2	1.3182916668477
411	240819	293.3	1.8476453269366
411	240879	293.4	1.3036140889628
411	240939	293.5	2.1053503463045
411	240948	293.6	1.8400492008077
411	241110	293.7	1.6054354996653
411	241272	293.8	1.4242952615721
411	241281	293.9	2.5333928965265
411	241290	294	2.5747890875209
411	241452	294.1	1.413962795306
411	241563	294.2	1.9247403887566
411	241725	294.3	2.031844094838
411	241785	294.4	2.2588592705084
411	241845	294.5	1.773263082793
411	241854	294.6	2.3463015345624
411	242016	294.7	2.5688186118146
411	242178	294.8	2.436950843432
411	242187	294.9	2.0612020491855
411	242196	295	1.4698626861209
411	242358	295.1	1.4003206482157
411	242418	295.2	1.6063674996141
411	242631	295.3	1.4775138721336
411	242691	295.4	1.4395397951128
411	242751	295.5	2.1016517748591
411	242760	295.6	1.457799598854
411	242973	295.7	1.4097750996007
411	243084	295.8	1.4970970823197
411	243093	295.9	1.6763540824875
411	243102	296	2.1316037480719
411	243264	296.1	1.3217160536442
411	243324	296.2	2.4960165041266
411	243537	296.3	1.4651198144536
411	243597	296.4	2.3663554140134
411	243657	296.5	1.7093537538079
411	243666	296.6	2.5188000644557
411	243809	296.7	1.6576497316593
411	243907	296.8	-0.52882105037177
411	243915	296.9	-4.5
411	243923	297	-4.5
411	244021	297.1	-4.5
411	244074	297.2	-4.5
411	244262	297.3	-4.5
411	244315	297.4	-4.5
411	244368	297.5	-4.5
411	244376	297.6	-4.5
411	244519	297.7	-4.5
411	244617	297.8	-4.5
411	244625	297.9	2.6
411	244633	298	2.6
411	244731	298.1	2.6
411	244784	298.2	2.6
411	244972	298.3	2.6
411	245025	298.4	1.30861027337
411	245078	298.5	0.9210989526473
411	245086	298.6	-0.28627079066355
411	245229	298.7	-0.08662613842171
411	245313	298.8	-0.25069061876274
411	245320	298.9	-0.026087122177705
411	245327	299	0.54640182706061
411	245412	299.1	-0.036812202935099
411	245419	299.2	-1.0404480715515
411	245582	299.3	0.7684286359232
411	245589	299.4	-0.57420958755538
411	245635	299.5	0.14738106254954
411	245642	299.6	0.061979942372998
411	245766	299.7	-0.12648230833001
411	245851	299.8	0.71037932115141
411	245858	299.9	1.8751070414437
411	245865	300	2.3713254723232
412	237495	290.7	0.973
412	237758	290.8	1.2854600236512
412	237769	290.9	1.4609297892096
412	237780	291	1.6364190385823
412	237980	291.1	1.8119375136765
412	238180	291.2	1.9874949563994
412	238380	291.3	2.1631011086581
412	238454	291.4	2.3387657123598
412	238654	291.5	2.5144985094118
412	238665	291.6	2.6903092417211
412	238865	291.7	2.8662076511949
412	239128	291.8	2.1367770341678
412	239139	291.9	2.5003782434246
412	239150	292	3.2114312514847
412	239350	292.1	2.9800256482532
412	239531	292.2	0.973
412	239712	292.3	1.6031430433792
412	239779	292.4	0.973
412	239903	292.5	1.7517700289887
412	239913	292.6	1.4883624985642
412	240094	292.7	1.2453978187125
412	240275	292.8	3.0479452519278
412	240285	292.9	2.8355051229839
412	240295	293	2.6701521261695
412	240476	293.1	2.9356928035308
412	240657	293.2	2.6709403270166
412	240819	293.3	3.3047879499922
412	240879	293.4	2.7718199103649
412	240939	293.5	3.7713910879672
412	240948	293.6	3.5579738471449
412	241110	293.7	3.3487521273729
412	241272	293.8	3.1822216512559
412	241281	293.9	4.7567877717661
412	241290	294	4.9862429189562
412	241452	294.1	3.4284856032294
412	241563	294.2	4.2566051892552
412	241725	294.3	4.5256119847575
412	241785	294.4	5.0070989260108
412	241845	294.5	4.3290948584047
412	241854	294.6	5.4027657998694
412	242016	294.7	5.9501611909772
412	242178	294.8	5.8798020072668
412	242187	294.9	5.3211982154933
412	242196	295	4.2923947961511
412	242358	295.1	4.2181155905821
412	242418	295.2	4.6851052801647
412	242631	295.3	4.4960799489503
412	242691	295.4	4.480256023931
412	242751	295.5	5.9399187587344
412	242760	295.6	4.6666480444724
412	242973	295.7	4.6231529331116
412	243084	295.8	4.8747563010621
412	243093	295.9	5.344847907272
412	243102	296	6.4796653572251
412	243264	296.1	4.6932079998353
412	243324	296.2	7.5646239476488
412	243537	296.3	5.1926713612765
412	243597	296.4	7.5059882421797
412	243657	296.5	5.9773125366011
412	243666	296.6	8.1698199078386
412	243809	296.7	6.0482057736353
412	243907	296.8	0.973
412	243915	296.9	0.973
412	243923	297	0.973
412	244021	297.1	0.973
412	244074	297.2	0.973
412	244262	297.3	0.973
412	244315	297.4	0.973
412	244368	297.5	0.973
412	244376	297.6	0.973
412	244519	297.7	0.973
412	244617	297.8	0.973
412	244625	297.9	5.5071383720436
412	244633	298	5.6857441019631
412	244731	298.1	5.8646023196432
412	244784	298.2	6.0437227669909
412	244972	298.3	6.2231151859136
412	245025	298.4	3.9328084514878
412	245078	298.5	3.2448256555335
412	245086	298.6	0.973
412	245229	298.7	1.3630574251172
412	245313	298.8	0.973
412	245320	298.9	1.4738473200065
412	245327	299	2.5437168275719
412	245412	299.1	1.456849211687
412	245419	299.2	0.973
412	245582	299.3	2.949685149877
412	245589	299.4	0.973
412	245635	299.5	1.792880591356
412	245642	299.6	1.6357651721773
412	245766	299.7	1.2872463639622
412	245851	299.8	2.8471258068202
412	245858	299.9	5.1117174813446
412	245865	300	6.2088310212234
415	242358	295.1	280.19356158957
415	242418	295.2	280.19526934278
415	242631	295.3	280.19862377797
415	242691	295.4	280.20360126664
415	242751	295.5	280.21026433349
415	242760	295.6	280.21835714878
415	242973	295.7	280.22790260716
415	243084	295.8	280.23900328342
415	243093	295.9	280.25137172448
415	243102	296	280.26483407742
415	243264	296.1	280.27939626241
415	243324	296.2	280.29546588045
415	243537	296.3	280.31308925324
415	243597	296.4	280.33198146748
415	243657	296.5	280.35249704636
415	243666	296.6	280.37471371196
415	243809	296.7	280.39852630983
415	243907	296.8	280.42356906106
415	243915	296.9	280.44994194362
415	243923	297	280.4775031738
415	244021	297.1	280.50598310403
415	244074	297.2	280.53556542757
415	244262	297.3	280.5668463529
415	244315	297.4	280.5997921464
415	244368	297.5	280.63430674545
415	244376	297.6	280.67027089937
415	244519	297.7	280.70729445252
415	244617	297.8	280.7454658852
415	244625	297.9	280.78470596173
415	244633	298	280.82553800121
415	244731	298.1	280.86778398639
415	244784	298.2	280.91177923656
415	244972	298.3	280.95680416725
415	245025	298.4	281.00334627912
415	245078	298.5	281.02864430163
415	245086	298.6	281.05078067581
415	245229	298.7	281.07368274717
415	245313	298.8	281.09720527145
415	245320	298.9	281.12115797876
415	245327	299	281.14577032655
415	245412	299.1	281.1708893181
415	245419	299.2	281.19670989284
415	245582	299.3	281.22323191111
415	245589	299.4	281.25041594393
415	245635	299.5	281.27828025852
415	245642	299.6	281.3067840566
415	245766	299.7	281.33599119629
415	245851	299.8	281.36593135728
415	245858	299.9	281.39661445515
415	245865	300	281.4278166165
416	242358	295.1	30.198265610992
416	242418	295.2	30.223558024905
416	242631	295.3	30.273238366783
416	242691	295.4	30.346956690414
416	242751	295.5	30.445639008091
416	242760	295.6	30.565496393194
416	242973	295.7	30.706867923348
416	243084	295.8	30.871272766582
416	243093	295.9	31.054453643569
416	243102	296	31.253835732758
416	243264	296.1	31.469506713942
416	243324	296.2	31.707503298324
416	243537	296.3	31.968511526502
416	243597	296.4	32.248311733954
416	243657	296.5	32.552154531505
416	243666	296.6	32.881191009857
416	243809	296.7	33.233863795553
416	243907	296.8	33.604755576752
416	243915	296.9	33.995347061596
416	243923	297	34.403538384378
416	244021	297.1	34.825335971698
416	244074	297.2	35.263460384211
416	244262	297.3	35.726741674824
416	244315	297.4	36.214680237149
416	244368	297.5	36.725853350674
416	244376	297.6	37.258494871769
416	244519	297.7	37.806826460593
416	244617	297.8	38.372158541146
416	244625	297.9	38.953317605663
416	244633	298	39.558054190287
416	244731	298.1	40.183731798504
416	244784	298.2	40.835316624188
416	244972	298.3	41.502151373622
416	245025	298.4	42.191456099319
416	245078	298.5	42.907333542719
416	245086	298.6	43.640293487802
416	245229	298.7	44.398606517245
416	245313	298.8	45.177463432482
416	245320	298.9	45.970564185755
416	245327	299	46.785506367968
416	245412	299.1	47.617224088035
416	245419	299.2	48.472172007285
416	245582	299.3	49.350345501203
416	245589	299.4	50.250439032383
416	245635	299.5	51.173057448907
416	245642	299.6	52.116849873994
416	245766	299.7	53.083930721573
416	245851	299.8	54.075282718877
416	245858	299.9	55.091234181744
416	245865	300	56.124372413016
417	242418	295.2	0.25350742437318
417	242631	295.3	0.49794913030726
417	242691	295.4	0.73888330378796
417	242751	295.5	0.98909895557111
417	242760	295.6	1.2013379622053
417	242973	295.7	1.4169755647786
417	243084	295.8	1.6478398821744
417	243093	295.9	1.8360332263684
417	243102	296	1.9984189753461
417	243264	296.1	2.1616835443192
417	243324	296.2	2.3854544419363
417	243537	296.3	2.6161015667684
417	243597	296.4	2.804454733898
417	243657	296.5	3.0454350971022
417	243666	296.6	3.2979529134055
417	243809	296.7	3.5348610795044
417	243907	296.8	3.7174711949622
417	243915	296.9	3.9149225394229
417	243923	297	4.0913268004112
417	244021	297.1	4.2277032289525
417	244074	297.2	4.3913480046844
417	244262	297.3	4.6434969452523
417	244315	297.4	4.8906383001745
417	244368	297.5	5.1235196396649
417	244376	297.6	5.3386988126474
417	244519	297.7	5.4959613290742
417	244617	297.8	5.6663583060364
417	244625	297.9	5.824993142333
417	244633	298	6.0613120803224
417	244731	298.1	6.271205251183
417	244784	298.2	6.5308748894894
417	244972	298.3	6.6837258156656
417	245025	298.4	6.908943773416
417	245078	298.5	7.1640420883928
417	245086	298.6	7.3331554939073
417	245229	298.7	7.5868093410378
417	245313	298.8	7.7923478701023
417	245320	298.9	7.934855356143
417	245327	299	8.1533756118627
417	245412	299.1	8.3212123789323
417	245419	299.2	8.5536270748602
417	245582	299.3	8.7859955032087
417	245589	299.4	9.0053022235107
417	245635	299.5	9.2306603591341
417	245642	299.6	9.4425031730008
417	245766	299.7	9.6755003845073
417	245851	299.8	9.9183296361366
417	245858	299.9	10.164443639031
417	245865	300	10.336394706758
418	242631	295.3	2.4444170593408
418	242691	295.4	2.409341734807
418	242751	295.5	2.5021565178315
418	242760	295.6	2.1223900663423
418	242973	295.7	2.1563760257325
418	243084	295.8	2.3086431739583
418	243093	295.9	1.8819334419401
418	243102	296	1.6238574897768
418	243264	296.1	1.6326456897306
418	243324	296.2	2.2377089761717
418	243537	296.3	2.3064712483203
418	243597	296.4	1.8835316712968
418	243657	296.5	2.4098036320414
418	243666	296.6	2.525178163033
418	243809	296.7	2.3690816609887
418	243907	296.8	1.8261011545779
418	243915	296.9	1.9745134446071
418	243923	297	1.7640426098835
418	244021	297.1	1.3637642854126
418	244074	297.2	1.6364477573195
418	244262	297.3	2.5214894056786
418	244315	297.4	2.471413549222
418	244368	297.5	2.3288133949041
418	244376	297.6	2.1517917298246
418	244519	297.7	1.5726251642685
418	244617	297.8	1.7039697696222
418	244625	297.9	1.5863483629655
418	244633	298	2.3631893798942
418	244731	298.1	2.098931708606
418	244784	298.2	2.5966963830637
418	244972	298.3	1.5285092617618
418	245025	298.4	2.2521795775043
418	245078	298.5	2.5509831497679
418	245086	298.6	1.6911340551451
418	245229	298.7	2.5365384713048
418	245313	298.8	2.0553852906451
418	245320	298.9	1.425074860407
418	245327	299	2.1852025571978
418	245412	299.1	1.6783676706953
418	245419	299.2	2.3241469592787
418	245582	299.3	2.3236842834856
418	245589	299.4	2.1930672030197
418	245635	299.5	2.2535813562339
418	245642	299.6	2.1184281386668
418	245766	299.7	2.3299721150659
418	245851	299.8	2.428292516293
418	245858	299.9	2.4611400289461
418	245865	300	1.7195106772706
419	242631	295.3	1.4273765509578
419	242691	295.4	1.5747145893131
419	242751	295.5	1.7542497002607
419	242760	295.6	1.782592278057
419	242973	295.7	1.9150009670727
419	243084	295.8	2.1067352509843
419	243093	295.9	2.0318674548819
419	243102	296	1.9892215877759
419	243264	296.1	2.0657652193898
419	243324	296.2	2.5127749180679
419	243537	296.3	2.6920398375428
419	243597	296.4	2.5203538061686
419	243657	296.5	3.0281961039121
419	243666	296.6	3.2794352958346
419	243809	296.7	3.3028262447693
419	243907	296.8	2.9300999814045
419	243915	296.9	3.1673450217559
419	243923	297	3.0530553579655
419	244021	297.1	2.710432250197
419	244074	297.2	3.0615384944889
419	244262	297.3	4.1650069111523
419	244315	297.4	4.2696468321809
419	244368	297.5	4.2451278594504
419	244376	297.6	4.1501474642808
419	244519	297.7	3.4734448659994
419	244617	297.8	3.7270800004177
419	244625	297.9	3.6362087795989
419	244633	298	4.875060339695
419	244731	298.1	4.607549123433
419	244784	298.2	5.5378286974
419	244972	298.3	3.9220940839248
419	245025	298.4	5.2237567810823
419	245078	298.5	5.8939191064805
419	245086	298.6	4.4889053696969
419	245229	298.7	6.1541893498687
419	245313	298.8	5.3895353507638
419	245320	298.9	4.2641001946721
419	245327	299	5.8472330126416
419	245412	299.1	4.9304613241643
419	245419	299.2	6.3714923320521
419	245582	299.3	6.5167169636826
419	245589	299.4	6.3714442208693
419	245635	299.5	6.6412356017679
419	245642	299.6	6.4640670203785
419	245766	299.7	7.0934393224971
419	245851	299.8	7.4829841081727
419	245858	299.9	7.7262290361761
419	245865	300	5.9940698149277

